333
conformation = 22
H 	 -4.777655 	 6.273766 	 5.059756 
H 	 -4.601003 	 -7.199675 	 5.674229 
H 	 6.582604 	 3.492236 	 -4.511483 
H 	 -7.162025 	 2.720642 	 -5.210584 
H 	 -2.677437 	 6.407722 	 -2.362249 
H 	 -3.131315 	 7.292312 	 -3.545235 
H 	 -7.332353 	 7.342918 	 3.548997 
H 	 -5.761757 	 7.421758 	 3.390442 
H 	 -3.793970 	 4.912230 	 0.527448 
H 	 -4.373589 	 5.141058 	 -0.884770 
H 	 -6.323666 	 4.326815 	 -1.725451 
H 	 -5.730612 	 5.834818 	 -2.137045 
H 	 -0.511025 	 2.666723 	 3.596630 
H 	 -0.996207 	 4.131141 	 3.195005 
H 	 -4.218115 	 -1.359091 	 -1.527957 
H 	 -2.870845 	 -0.881272 	 -1.983476 
H 	 -0.770752 	 4.580816 	 7.196417 
H 	 -1.318393 	 5.317219 	 -6.328075 
H 	 -2.709479 	 -3.209120 	 -1.998268 
H 	 -1.484861 	 -3.985295 	 -1.728434 
H 	 5.420190 	 7.274738 	 4.677226 
H 	 5.183860 	 -6.321250 	 3.761301 
H 	 -0.178333 	 -1.246348 	 -1.658765 
H 	 -0.904711 	 -0.056722 	 -2.420210 
H 	 4.359200 	 -3.174998 	 -2.459679 
H 	 4.329153 	 -2.636166 	 -0.951887 
H 	 -6.154858 	 -1.620579 	 0.079494 
H 	 -5.113174 	 -0.566324 	 0.645979 
H 	 3.347177 	 7.238395 	 -6.393403 
H 	 2.297420 	 -6.630365 	 -5.961659 
H 	 -6.482722 	 -6.789099 	 -2.125252 
H 	 -5.075479 	 -6.965384 	 -1.374466 
H 	 5.329685 	 5.403221 	 -3.328863 
H 	 4.476210 	 4.117377 	 -3.415081 
H 	 -2.372040 	 1.630135 	 -5.472289 
H 	 -3.478187 	 0.777902 	 -5.960213 
H 	 0.222195 	 1.307897 	 5.231357 
H 	 -1.149074 	 0.454548 	 5.697080 
H 	 2.127845 	 0.177774 	 -7.320873 
H 	 3.260791 	 0.671860 	 6.541878 
H 	 -0.092479 	 -5.356965 	 5.507745 
H 	 0.256181 	 -4.639923 	 6.832740 
H 	 3.520065 	 -1.986271 	 7.327580 
H 	 3.703214 	 -3.618523 	 7.110821 
H 	 -4.996979 	 3.785854 	 5.292224 
H 	 -6.298886 	 4.217936 	 4.584976 
H 	 -3.375840 	 -6.820098 	 1.984554 
H 	 -3.419191 	 -6.885149 	 3.613898 
H 	 3.856153 	 3.242942 	 0.413076 
H 	 3.439360 	 3.477857 	 1.951664 
H 	 3.223637 	 7.127165 	 -2.381884 
H 	 2.241100 	 -6.792076 	 -3.074885 
H 	 0.992355 	 -4.298013 	 -4.085122 
H 	 0.189306 	 -5.236686 	 -3.102677 
H 	 3.410627 	 -5.708501 	 6.394181 
H 	 2.057199 	 -5.177502 	 5.795457 
H 	 -5.225880 	 -4.072522 	 -6.300719 
H 	 -5.245916 	 -3.733546 	 -4.774983 
H 	 -4.895233 	 1.481596 	 6.402954 
H 	 -5.308691 	 2.073532 	 -7.224943 
H 	 6.360778 	 -7.173873 	 -3.198477 
H 	 7.163461 	 6.808798 	 -4.151559 
H 	 -5.413919 	 0.870020 	 -1.168842 
H 	 -6.070343 	 2.235499 	 -0.976477 
H 	 -6.736505 	 6.239556 	 -7.003159 
H 	 -7.103846 	 5.283882 	 6.739719 
H 	 -4.623203 	 -1.793468 	 -5.446870 
H 	 -4.074783 	 -1.152001 	 -4.182884 
H 	 -3.378189 	 3.284364 	 2.387153 
H 	 -4.845738 	 3.613282 	 2.548991 
H 	 6.571618 	 3.095513 	 4.259821 
H 	 5.930088 	 4.527005 	 4.197171 
H 	 -2.787612 	 2.650467 	 6.537268 
H 	 -2.519765 	 3.157257 	 5.006556 
H 	 2.571111 	 4.187016 	 7.232136 
H 	 3.865065 	 3.386169 	 7.312592 
H 	 2.783188 	 0.751488 	 -0.909291 
H 	 2.764373 	 0.464294 	 -2.409564 
H 	 7.139711 	 -0.708322 	 -4.157440 
H 	 6.144675 	 -1.949335 	 -4.287463 
H 	 1.796592 	 -3.876301 	 -6.118091 
H 	 2.995769 	 -4.431832 	 -5.310044 
H 	 6.540826 	 1.504700 	 -0.066330 
H 	 7.116595 	 0.096793 	 0.128355 
H 	 -2.252964 	 -3.145485 	 0.337639 
H 	 -1.956492 	 -3.995412 	 1.386984 
H 	 -5.646442 	 -7.300013 	 -4.275120 
H 	 -6.211404 	 -7.068521 	 -5.732279 
H 	 2.638199 	 -1.580320 	 -2.722837 
H 	 1.743160 	 -1.158854 	 -3.951753 
H 	 4.694379 	 5.369106 	 6.192944 
H 	 3.571417 	 6.005966 	 5.183391 
H 	 -3.654289 	 -5.231275 	 -4.873514 
H 	 -2.521330 	 -5.878732 	 -5.527609 
H 	 -1.115568 	 -3.672549 	 -4.141242 
H 	 -2.509188 	 -3.636663 	 -4.705243 
H 	 2.557708 	 1.997480 	 4.977904 
H 	 1.162322 	 1.647181 	 3.472363 
H 	 -2.749389 	 -1.247061 	 4.344394 
H 	 -2.656457 	 0.034652 	 3.543708 
H 	 -0.458148 	 6.637100 	 2.448228 
H 	 -1.927802 	 6.541078 	 2.709144 
H 	 5.271021 	 -4.536945 	 -5.254355 
H 	 4.532968 	 -3.212720 	 -5.680455 
H 	 6.510320 	 0.792248 	 5.535714 
H 	 -7.131811 	 1.253609 	 6.270336 
H 	 5.066933 	 -2.308882 	 4.861692 
H 	 3.851001 	 -3.327665 	 4.992286 
H 	 3.121368 	 2.409448 	 -4.747259 
H 	 3.131155 	 3.801985 	 -5.400186 
H 	 -7.565038 	 -5.055546 	 -1.972698 
H 	 6.084444 	 -5.782027 	 -1.476743 
H 	 -4.499327 	 5.435424 	 -7.444143 
H 	 -3.077051 	 4.674644 	 -7.131169 
H 	 5.183708 	 -6.889334 	 7.196727 
H 	 5.648427 	 -5.753078 	 6.277502 
H 	 4.672826 	 5.752504 	 -6.449703 
H 	 5.405923 	 6.685931 	 -5.467241 
H 	 3.953330 	 0.575957 	 -6.046513 
H 	 3.509162 	 0.017909 	 -4.685194 
H 	 1.264951 	 -3.326260 	 1.690993 
H 	 1.499586 	 -4.647137 	 1.070334 
H 	 4.911428 	 -0.642576 	 0.065204 
H 	 3.938841 	 -1.359958 	 0.976333 
H 	 -6.324417 	 -5.834617 	 7.169166 
H 	 -7.544256 	 -5.585881 	 -6.814255 
H 	 0.233463 	 -2.441370 	 -6.443900 
H 	 0.777964 	 -2.484301 	 7.035190 
H 	 -0.464438 	 -6.572935 	 -7.148700 
H 	 -0.406947 	 7.435296 	 -5.804808 
H 	 0.559493 	 0.250172 	 1.196850 
H 	 2.094125 	 0.193814 	 1.527652 
H 	 2.311242 	 -6.424619 	 2.023733 
H 	 1.738989 	 7.385412 	 1.027965 
H 	 -2.943214 	 0.259973 	 1.291805 
H 	 -4.188638 	 1.293218 	 1.242956 
H 	 -4.135367 	 -5.924765 	 -7.030571 
H 	 -3.231744 	 -7.102010 	 -7.418654 
H 	 0.356161 	 3.684873 	 5.485672 
H 	 0.891368 	 5.074688 	 5.626684 
H 	 -1.179056 	 -5.850605 	 3.406293 
H 	 -0.513187 	 -4.370401 	 3.558472 
H 	 -6.539275 	 -2.973786 	 -3.256399 
H 	 -5.125676 	 -3.272049 	 -2.671003 
H 	 -0.905220 	 2.100277 	 -3.595305 
H 	 -2.266900 	 1.884041 	 -3.007627 
H 	 4.991686 	 5.409732 	 -1.221338 
H 	 4.696290 	 5.991860 	 0.206602 
H 	 -0.412009 	 3.052999 	 0.062667 
H 	 -1.610417 	 3.275514 	 1.035484 
H 	 -0.271910 	 5.547948 	 -0.115831 
H 	 -1.659925 	 5.245858 	 -0.822785 
H 	 6.176897 	 0.790350 	 2.964836 
H 	 5.100119 	 1.809728 	 2.374703 
H 	 6.229992 	 3.070651 	 6.784403 
H 	 6.625763 	 3.767773 	 -6.716084 
H 	 -4.237055 	 -3.592935 	 1.983972 
H 	 -4.658183 	 -4.316731 	 3.110107 
H 	 2.053309 	 5.310534 	 1.810711 
H 	 2.164035 	 4.584374 	 0.411914 
H 	 0.372761 	 -0.574564 	 5.747659 
H 	 1.742699 	 -1.299580 	 5.520291 
H 	 -5.561289 	 0.639245 	 -4.793624 
H 	 -6.465440 	 1.225556 	 -3.738479 
H 	 -1.271117 	 -0.352004 	 -0.029793 
H 	 -1.422039 	 -1.144380 	 1.426491 
H 	 -0.240861 	 7.110168 	 -3.126125 
H 	 -0.017879 	 -7.357939 	 -1.670532 
H 	 -3.869183 	 2.386162 	 -1.974407 
H 	 -2.554097 	 2.818538 	 -1.239492 
H 	 -5.876268 	 0.097903 	 2.999457 
H 	 -6.803835 	 -1.108963 	 2.610451 
H 	 4.297271 	 -5.021489 	 -0.910119 
H 	 4.133455 	 -6.499622 	 -0.901907 
H 	 7.122390 	 -1.240024 	 6.017734 
H 	 7.195495 	 -0.981471 	 4.390825 
H 	 -7.377651 	 -4.336495 	 4.465678 
H 	 -7.150784 	 -5.699133 	 5.056109 
H 	 -6.127575 	 -0.574775 	 -7.424666 
H 	 -7.128468 	 -1.307364 	 -6.420306 
H 	 3.344925 	 4.504716 	 3.923173 
H 	 2.000129 	 3.768974 	 3.998821 
H 	 5.939904 	 -3.307982 	 3.127945 
H 	 7.139036 	 -3.312205 	 2.090268 
H 	 6.428069 	 3.712818 	 -1.365973 
H 	 7.197906 	 3.992089 	 -0.031548 
H 	 -0.275579 	 4.998398 	 -4.225046 
H 	 -1.513209 	 5.831055 	 -4.139508 
H 	 -4.389234 	 -2.630321 	 5.470993 
H 	 -4.799850 	 -2.191624 	 3.978906 
H 	 7.317088 	 4.464082 	 2.330426 
H 	 -7.056980 	 5.691001 	 1.390059 
H 	 4.570033 	 -5.127594 	 1.851197 
H 	 3.740735 	 -4.663406 	 3.042855 
H 	 -7.361262 	 -3.740049 	 -0.091781 
H 	 6.498386 	 -2.972984 	 -0.876245 
H 	 4.156998 	 -0.155405 	 2.827635 
H 	 3.597902 	 -1.559909 	 3.284757 
H 	 -0.881564 	 -1.519912 	 -4.736429 
H 	 -0.100551 	 -0.226713 	 -5.293181 
H 	 0.932586 	 -3.146284 	 -2.104972 
H 	 1.457142 	 -2.851513 	 -0.675992 
H 	 0.430072 	 3.765865 	 -2.002166 
H 	 1.408921 	 3.653016 	 -3.308129 
H 	 -0.067560 	 -6.202575 	 0.969750 
H 	 -0.358593 	 -6.059836 	 -0.553648 
H 	 1.626206 	 2.301847 	 0.346619 
H 	 1.846805 	 2.524417 	 -1.157496 
H 	 -1.091507 	 -2.018123 	 3.146293 
H 	 0.141224 	 -2.104432 	 4.168859 
H 	 4.214036 	 2.025391 	 4.897810 
H 	 0.123917 	 1.396906 	 -7.099377 
H 	 -3.002031 	 -6.200367 	 -0.369775 
H 	 -3.684048 	 7.291312 	 -0.138642 
H 	 -6.968966 	 -5.943764 	 1.458031 
H 	 6.746710 	 -6.106218 	 0.467211 
H 	 6.157599 	 0.711253 	 -2.414285 
H 	 5.380324 	 0.857511 	 -3.882151 
H 	 2.012843 	 7.459894 	 6.299539 
H 	 1.840186 	 -7.346368 	 4.681632 
H 	 1.051449 	 1.936209 	 -5.953478 
O 	 -4.612693 	 7.227907 	 4.808065 
O 	 7.194146 	 3.517752 	 -5.285586 
O 	 -2.900534 	 6.390165 	 -3.294178 
O 	 -6.588853 	 7.285099 	 2.875550 
O 	 -3.671852 	 5.494833 	 -0.255776 
O 	 -5.643329 	 4.862047 	 -2.252267 
O 	 -1.298001 	 3.201843 	 3.220486 
O 	 -3.637562 	 -1.395249 	 -2.313532 
O 	 -1.419758 	 4.551811 	 -6.945349 
O 	 -2.378608 	 -3.845662 	 -1.328015 
O 	 5.853430 	 -6.884854 	 4.219801 
O 	 -0.977015 	 -0.619317 	 -1.626445 
O 	 4.641456 	 -3.404072 	 -1.551755 
O 	 -5.568387 	 -0.903462 	 -0.165190 
O 	 2.389553 	 7.426609 	 -6.499891 
O 	 -5.667816 	 -7.357956 	 -2.092433 
O 	 5.176810 	 4.495750 	 -2.895534 
O 	 -3.113005 	 1.689720 	 -6.157967 
O 	 -0.273540 	 0.820563 	 6.046987 
O 	 3.032801 	 -0.042123 	 7.282126 
O 	 0.234569 	 -5.525575 	 6.420528 
O 	 4.183091 	 -2.740596 	 7.305887 
O 	 -5.302237 	 4.270610 	 4.472625 
O 	 -2.965780 	 -6.480004 	 2.828171 
O 	 4.141261 	 3.086252 	 1.317131 
O 	 3.114480 	 -6.879403 	 -2.675152 
O 	 0.398362 	 -4.317431 	 -3.325121 
O 	 3.005572 	 -5.267690 	 5.633809 
O 	 -4.616366 	 -3.871550 	 -5.576660 
O 	 -5.588033 	 1.346343 	 7.061682 
O 	 6.268696 	 6.865330 	 -3.759576 
O 	 -5.195279 	 1.825305 	 -1.035753 
O 	 -6.540303 	 6.057808 	 6.970592 
O 	 -4.307766 	 -0.945811 	 -5.080036 
O 	 -4.159758 	 3.460996 	 1.868853 
O 	 6.721455 	 4.019653 	 4.043989 
O 	 -3.172103 	 2.787237 	 5.630919 
O 	 3.394202 	 4.109266 	 -7.111833 
O 	 3.134054 	 1.077505 	 -1.709785 
O 	 7.095400 	 -1.680684 	 -4.237348 
O 	 2.088066 	 -4.662187 	 -5.529777 
O 	 6.348834 	 0.523631 	 -0.205493 
O 	 -2.328908 	 -3.095691 	 1.314322 
O 	 -6.092310 	 7.137685 	 -5.034664 
O 	 2.681030 	 -1.135961 	 -3.594726 
O 	 4.428898 	 5.488217 	 5.285585 
O 	 -2.860130 	 -5.752347 	 -4.661683 
O 	 -1.813377 	 -3.026048 	 -4.352004 
O 	 1.025855 	 2.102785 	 4.332526 
O 	 -2.155474 	 -0.525171 	 4.144055 
O 	 -1.159021 	 5.963381 	 2.553288 
O 	 4.880716 	 -3.681502 	 -4.878561 
O 	 7.039029 	 1.595272 	 5.659663 
O 	 4.393144 	 -2.784840 	 4.394659 
O 	 2.935411 	 3.350824 	 -4.537824 
O 	 6.791908 	 -5.845769 	 -2.119664 
O 	 -4.035541 	 4.855202 	 -6.857878 
O 	 5.231068 	 -5.926617 	 7.134962 
O 	 5.135104 	 6.596729 	 -6.387786 
O 	 4.011172 	 0.754416 	 -5.067059 
O 	 1.682405 	 -3.706581 	 0.914718 
O 	 4.213194 	 -1.382160 	 0.040219 
O 	 -6.585704 	 -5.484585 	 -6.843726 
O 	 0.541636 	 -3.076001 	 -7.101189 
O 	 -1.003848 	 -6.948442 	 -6.417543 
O 	 1.359110 	 0.805202 	 1.391902 
O 	 1.478937 	 -6.807613 	 1.665688 
O 	 -3.907912 	 0.371858 	 1.460691 
O 	 -3.830154 	 -6.426473 	 7.089152 
O 	 0.603467 	 4.330775 	 6.169687 
O 	 -0.373001 	 -5.351535 	 3.741997 
O 	 -5.825840 	 -3.690209 	 -3.209194 
O 	 -1.560579 	 1.387417 	 -3.600433 
O 	 4.964054 	 6.210058 	 -0.674485 
O 	 -1.355861 	 3.196418 	 0.081411 
O 	 -0.872332 	 5.846868 	 -0.812469 
O 	 5.252380 	 1.152281 	 3.081699 
O 	 6.339378 	 3.977247 	 7.218149 
O 	 -4.969848 	 -3.527617 	 2.607753 
O 	 2.125816 	 5.493070 	 0.826121 
O 	 0.777905 	 -1.468534 	 5.516169 
O 	 -6.056458 	 1.466120 	 -4.567983 
O 	 -1.177063 	 -0.277666 	 1.000391 
O 	 -0.132511 	 -7.030039 	 -2.565933 
O 	 -3.046510 	 2.923715 	 -2.056698 
O 	 -6.831094 	 -0.150903 	 2.784207 
O 	 4.655007 	 -5.844874 	 -0.434414 
O 	 6.638010 	 -1.159166 	 5.152554 
O 	 -6.807469 	 -4.775843 	 5.130216 
O 	 -6.710325 	 -1.346559 	 -7.305030 
O 	 2.550769 	 4.335361 	 3.420262 
O 	 6.837379 	 -3.023940 	 2.988753 
O 	 7.172102 	 3.415256 	 -0.802661 
O 	 -0.659163 	 5.816957 	 -4.587782 
O 	 -4.372844 	 -1.858384 	 4.842304 
O 	 -7.204555 	 4.748646 	 1.453421 
O 	 4.083394 	 -5.510597 	 2.645128 
O 	 -7.484322 	 -2.867834 	 -0.561743 
O 	 3.486178 	 -0.849538 	 2.606008 
O 	 0.004830 	 -1.179452 	 -4.958367 
O 	 1.159347 	 -2.374155 	 -1.487342 
O 	 0.448366 	 3.707113 	 -2.967047 
O 	 -0.728585 	 -5.927840 	 0.325797 
O 	 1.500112 	 2.970533 	 -0.358923 
O 	 -0.402834 	 -2.649413 	 3.517697 
O 	 3.458817 	 1.991924 	 5.509125 
O 	 -3.852083 	 -6.619427 	 -0.191175 
O 	 -7.505086 	 -5.482017 	 0.771048 
O 	 6.279003 	 0.838286 	 -3.416295 
O 	 1.982450 	 6.956744 	 5.420887 
O 	 0.717632 	 1.122955 	 -6.327981 
K 	 -4.439399 	 3.870014 	 -4.567779 
