333
conformation = 7
H 	 6.221034 	 -6.164945 	 -3.064430 
H 	 6.919970 	 -4.822326 	 -2.421311 
H 	 2.888634 	 6.140079 	 2.253687 
H 	 3.795893 	 4.988478 	 1.746706 
H 	 -6.261437 	 -5.931367 	 4.523913 
H 	 -6.573523 	 -5.234257 	 3.236206 
H 	 3.860834 	 -5.159241 	 -4.624571 
H 	 5.406767 	 -5.037644 	 -4.440992 
H 	 -7.480305 	 -7.622752 	 -7.569747 
H 	 6.935431 	 -7.220781 	 5.878340 
H 	 4.941582 	 6.920344 	 5.249784 
H 	 5.445899 	 -6.675014 	 4.645720 
H 	 -4.031454 	 5.190561 	 -4.710791 
H 	 -4.634393 	 6.631250 	 -4.973424 
H 	 6.959448 	 1.250306 	 5.232292 
H 	 -6.409434 	 1.397738 	 4.757141 
H 	 -4.261469 	 6.983731 	 -0.762743 
H 	 -4.701202 	 -7.250435 	 0.502969 
H 	 -6.405480 	 -0.863825 	 4.914657 
H 	 -5.105813 	 -1.744185 	 5.182595 
H 	 1.844003 	 -5.163836 	 -3.409336 
H 	 1.519977 	 -4.016350 	 -4.342611 
H 	 -3.943650 	 1.036765 	 5.207214 
H 	 -4.491605 	 2.409153 	 4.465963 
H 	 0.822895 	 -0.807768 	 4.381517 
H 	 0.597922 	 -0.233818 	 5.892449 
H 	 5.120715 	 0.667529 	 6.650118 
H 	 6.131048 	 1.645153 	 -7.329319 
H 	 -0.257822 	 -5.200025 	 0.659702 
H 	 -1.511374 	 -4.222111 	 0.779676 
H 	 4.705487 	 -4.616177 	 4.818222 
H 	 6.059852 	 -4.620311 	 5.562030 
H 	 1.847465 	 -7.105800 	 3.484363 
H 	 0.835847 	 6.512352 	 3.459018 
H 	 -6.033907 	 3.957487 	 1.411373 
H 	 -7.373147 	 3.301332 	 0.835662 
H 	 -3.375554 	 3.830318 	 -2.734707 
H 	 -4.770480 	 3.120507 	 -2.585454 
H 	 -1.503519 	 2.706338 	 -0.413045 
H 	 -0.416842 	 3.139936 	 -1.451492 
H 	 -3.802661 	 -2.916434 	 -2.570869 
H 	 -3.476836 	 -2.291759 	 -1.132023 
H 	 -0.121517 	 0.410769 	 -0.779101 
H 	 0.030182 	 -1.151528 	 -1.040541 
H 	 6.416182 	 6.306790 	 -2.855440 
H 	 4.932614 	 6.715036 	 -3.502053 
H 	 -7.017879 	 -4.233246 	 -6.162837 
H 	 -7.191839 	 -4.526222 	 -4.639053 
H 	 0.276667 	 5.813058 	 -7.546299 
H 	 -0.253969 	 5.909187 	 -6.077997 
H 	 -0.261432 	 -5.378291 	 4.301314 
H 	 -1.422555 	 -4.497379 	 4.008481 
H 	 -2.641834 	 -2.126705 	 2.785743 
H 	 -3.471639 	 -2.849146 	 3.763788 
H 	 -0.137943 	 -3.339262 	 -1.783783 
H 	 -1.527324 	 -2.949896 	 -2.212616 
H 	 6.113861 	 -1.685499 	 0.535654 
H 	 6.020690 	 -1.275902 	 2.041562 
H 	 6.257434 	 3.920691 	 -1.684117 
H 	 5.982960 	 4.416775 	 -0.230939 
H 	 2.644785 	 -4.721367 	 3.533385 
H 	 3.491103 	 -5.862241 	 2.780642 
H 	 5.908244 	 3.267716 	 5.642873 
H 	 5.184641 	 4.680534 	 5.681526 
H 	 4.484060 	 -6.167422 	 -0.199224 
H 	 4.188930 	 -7.097676 	 -1.290743 
H 	 7.017581 	 0.607483 	 1.441928 
H 	 7.339700 	 1.417952 	 2.669036 
H 	 -7.156906 	 5.803820 	 -5.487088 
H 	 6.290242 	 6.162142 	 -5.628478 
H 	 2.931722 	 5.522781 	 -3.808387 
H 	 2.335543 	 6.853914 	 -3.640655 
H 	 -6.416270 	 5.332131 	 -1.484739 
H 	 -6.058577 	 5.418567 	 -2.998314 
H 	 -1.112355 	 6.470476 	 -0.783143 
H 	 0.376295 	 5.949745 	 -0.670714 
H 	 -0.890224 	 3.168671 	 5.917634 
H 	 -0.798661 	 2.793793 	 4.456279 
H 	 3.338290 	 1.780788 	 2.725959 
H 	 2.587506 	 0.485825 	 2.628509 
H 	 -2.074059 	 -1.695475 	 0.522520 
H 	 -0.795966 	 -1.775714 	 1.596359 
H 	 2.830828 	 4.000411 	 6.730748 
H 	 3.504668 	 2.626836 	 6.920605 
H 	 -6.136382 	 -0.509720 	 7.201688 
H 	 -5.518384 	 -1.447826 	 -6.643802 
H 	 5.605313 	 -4.988180 	 2.555876 
H 	 5.086027 	 -4.621732 	 1.147298 
H 	 -0.957417 	 0.638889 	 4.081049 
H 	 -1.827551 	 1.122012 	 2.952536 
H 	 1.050116 	 -7.175952 	 -1.866683 
H 	 -0.058918 	 -6.418641 	 -2.571904 
H 	 -7.322262 	 -2.909378 	 2.062907 
H 	 -6.018455 	 -3.539803 	 1.327617 
H 	 -4.817974 	 -1.136382 	 2.966759 
H 	 -6.041578 	 -1.235739 	 1.966063 
H 	 -1.086563 	 4.448635 	 -2.983378 
H 	 -2.380629 	 3.957297 	 -4.506013 
H 	 -6.351059 	 1.318770 	 -3.412158 
H 	 -6.512634 	 2.399113 	 -4.322795 
H 	 -4.014911 	 -5.924814 	 -5.594203 
H 	 -5.474464 	 -6.037829 	 -5.063765 
H 	 1.780598 	 -1.969831 	 1.478422 
H 	 1.076937 	 -0.626271 	 1.257144 
H 	 3.003977 	 3.199748 	 -2.482858 
H 	 4.301683 	 3.950777 	 -1.911298 
H 	 1.380475 	 0.095308 	 -3.188424 
H 	 0.327420 	 -0.898613 	 -2.928799 
H 	 -0.452541 	 4.868761 	 2.285347 
H 	 -0.739994 	 6.031986 	 1.314204 
H 	 3.719437 	 -2.646480 	 4.880400 
H 	 2.474910 	 -3.427199 	 5.436489 
H 	 6.746712 	 -7.166062 	 -0.649158 
H 	 -6.667183 	 -7.579885 	 -0.336225 
H 	 1.709633 	 -4.450340 	 -0.745170 
H 	 1.940165 	 -3.382112 	 -1.854292 
H 	 1.221984 	 -6.836955 	 0.500707 
H 	 1.829155 	 -5.689045 	 1.356395 
H 	 0.388582 	 3.005634 	 0.792613 
H 	 -0.122279 	 2.349985 	 2.100059 
H 	 -2.623728 	 -0.934988 	 -6.580511 
H 	 -2.046157 	 -2.283102 	 -7.079345 
H 	 1.287434 	 1.757232 	 6.758468 
H 	 0.358293 	 0.992953 	 -7.071399 
H 	 5.058998 	 -3.399824 	 -0.880162 
H 	 3.742358 	 -2.969035 	 -0.292345 
H 	 -3.255677 	 -0.105788 	 0.461223 
H 	 -2.827142 	 -0.107442 	 -1.053515 
H 	 -4.162691 	 -3.829934 	 -0.170751 
H 	 -3.971934 	 -5.070820 	 0.781914 
H 	 -3.057313 	 2.687451 	 -6.922650 
H 	 -1.640453 	 2.693619 	 -6.208979 
H 	 -1.250758 	 -3.976848 	 -6.151740 
H 	 -1.897673 	 -4.837904 	 -7.189759 
H 	 -6.603296 	 2.666380 	 -6.988724 
H 	 7.104676 	 3.614449 	 -6.914935 
H 	 7.088710 	 -3.558443 	 -0.156122 
H 	 -6.855634 	 -4.673751 	 -0.642358 
H 	 -3.274493 	 6.101676 	 -2.564903 
H 	 -2.710112 	 -7.321347 	 -2.269636 
H 	 -4.902507 	 -3.313283 	 -4.643533 
H 	 -4.208482 	 -1.943489 	 -4.291119 
H 	 4.710462 	 -0.614160 	 3.563658 
H 	 6.090279 	 -0.825930 	 4.308753 
H 	 -4.572685 	 4.554103 	 3.155473 
H 	 -5.886513 	 4.191364 	 3.927924 
H 	 1.306391 	 -7.064864 	 5.568443 
H 	 1.075167 	 -6.670842 	 7.011511 
H 	 -4.081773 	 5.286105 	 6.803730 
H 	 -5.099925 	 5.523607 	 -6.968476 
H 	 -3.908665 	 -6.966429 	 6.732277 
H 	 -5.177595 	 -7.315409 	 6.102793 
H 	 2.511923 	 3.209403 	 -5.032456 
H 	 1.565387 	 4.302143 	 -5.626394 
H 	 3.136704 	 5.530666 	 -1.277430 
H 	 2.900697 	 6.305377 	 0.091666 
H 	 7.106381 	 -0.809672 	 -6.012758 
H 	 6.532131 	 -1.989689 	 -5.024738 
H 	 -1.435577 	 -7.153785 	 -6.207803 
H 	 -1.602539 	 6.973752 	 7.282314 
H 	 -3.198969 	 1.816961 	 -2.223112 
H 	 -1.947439 	 1.128940 	 -2.840330 
H 	 5.695109 	 3.100918 	 2.104434 
H 	 4.689044 	 3.754663 	 3.129888 
H 	 -4.786945 	 2.013206 	 6.876890 
H 	 -4.810742 	 1.196257 	 -6.722686 
H 	 -4.037106 	 -5.276086 	 3.696201 
H 	 -3.506197 	 -5.138171 	 5.025437 
H 	 7.372218 	 4.802723 	 5.010696 
H 	 -6.217331 	 5.229798 	 5.592356 
H 	 5.292298 	 2.429182 	 -4.828667 
H 	 4.441261 	 1.276843 	 -5.517920 
H 	 0.706920 	 -2.595189 	 5.934199 
H 	 0.572987 	 -4.232976 	 5.993847 
H 	 3.654922 	 1.158256 	 -2.266293 
H 	 3.476831 	 1.326067 	 -3.729062 
H 	 4.092048 	 -1.868074 	 -3.591882 
H 	 4.066535 	 -3.331744 	 -2.986645 
H 	 5.283538 	 1.784973 	 -0.466964 
H 	 4.439594 	 1.059128 	 0.501678 
H 	 -0.426443 	 6.754039 	 -3.926110 
H 	 -1.764879 	 6.121239 	 -4.358039 
H 	 2.351705 	 -0.922945 	 -5.006065 
H 	 3.472687 	 -1.054643 	 -6.034073 
H 	 2.755706 	 6.068173 	 5.423522 
H 	 3.513566 	 6.340922 	 6.791930 
H 	 -3.855846 	 -7.444620 	 2.490129 
H 	 -5.259714 	 -6.700894 	 2.701277 
H 	 6.982502 	 -0.139239 	 -2.550990 
H 	 6.602031 	 -0.060132 	 -4.035324 
H 	 3.749915 	 7.099957 	 -5.664701 
H 	 4.426175 	 -6.867874 	 -6.529103 
H 	 0.932512 	 -2.797719 	 -6.232234 
H 	 0.138724 	 -2.347664 	 -4.809307 
H 	 3.973177 	 -1.411020 	 6.578817 
H 	 2.855681 	 -0.501045 	 5.925501 
H 	 0.514929 	 2.266437 	 -5.143425 
H 	 -0.104109 	 0.869416 	 -4.823018 
H 	 -4.405362 	 0.938558 	 2.299229 
H 	 -3.655450 	 2.198582 	 1.577131 
H 	 -2.739879 	 -0.746337 	 4.747048 
H 	 -2.253595 	 -0.320747 	 6.195245 
H 	 -3.222132 	 6.287823 	 4.749862 
H 	 -2.165550 	 6.001450 	 3.609485 
H 	 -3.724439 	 -3.718539 	 -7.177546 
H 	 -3.944046 	 -3.604035 	 6.260612 
H 	 -2.088120 	 4.698475 	 7.133587 
H 	 -1.569126 	 5.016210 	 5.758074 
H 	 -4.736233 	 0.414711 	 -4.903785 
H 	 -3.604282 	 0.345713 	 -3.836783 
H 	 0.392161 	 3.956939 	 -3.091539 
H 	 -3.414044 	 3.724316 	 -0.366521 
H 	 -6.608097 	 -3.879899 	 6.405673 
H 	 -7.369966 	 -5.186041 	 6.729958 
H 	 4.387746 	 -3.291216 	 -6.621872 
H 	 3.301495 	 -3.823690 	 -7.509709 
H 	 2.612654 	 3.015592 	 4.443630 
H 	 1.730885 	 3.337581 	 3.148386 
H 	 -1.675810 	 -5.069799 	 -1.756958 
H 	 -1.841814 	 -4.870075 	 -3.248188 
H 	 -2.489009 	 4.343061 	 0.807553 
O 	 6.673581 	 -5.293317 	 -3.252696 
O 	 3.559666 	 5.897054 	 1.554992 
O 	 -6.590613 	 -6.117056 	 3.655371 
O 	 4.726847 	 -5.158806 	 -5.143976 
O 	 -7.263456 	 -7.041358 	 6.572918 
O 	 5.642735 	 7.254772 	 4.599472 
O 	 -4.901353 	 5.693023 	 -4.847496 
O 	 -7.292625 	 1.048643 	 4.531605 
O 	 -5.040460 	 6.964405 	 -0.114925 
O 	 -5.964960 	 -1.474877 	 5.542648 
O 	 2.275259 	 -4.389622 	 -3.817527 
O 	 -4.599595 	 1.815520 	 5.229168 
O 	 0.977703 	 -0.980432 	 5.311441 
O 	 5.702076 	 1.431536 	 6.711516 
O 	 -1.190491 	 -5.103973 	 0.413605 
O 	 5.632344 	 -4.966557 	 4.724521 
O 	 1.547451 	 6.919946 	 3.918213 
O 	 -6.752288 	 4.056119 	 0.722918 
O 	 -3.921397 	 3.255400 	 -2.078250 
O 	 -0.677926 	 2.360252 	 -0.809225 
O 	 -3.314710 	 -3.053516 	 -1.721361 
O 	 0.565932 	 -0.335604 	 -0.801214 
O 	 5.935924 	 6.694980 	 -3.604986 
O 	 -6.604293 	 -4.044511 	 -5.268242 
O 	 0.483909 	 5.508524 	 -6.658080 
O 	 -0.470387 	 -4.444019 	 4.163738 
O 	 -3.226486 	 -1.936403 	 3.532780 
O 	 -0.595634 	 -2.759876 	 -2.425121 
O 	 6.667028 	 -1.377014 	 1.260340 
O 	 5.746417 	 3.741890 	 -0.898280 
O 	 2.589916 	 -5.630267 	 3.058374 
O 	 6.051611 	 4.227628 	 5.788595 
O 	 4.831209 	 -6.373435 	 -1.081044 
O 	 6.980147 	 1.515249 	 1.799539 
O 	 7.069191 	 5.826005 	 -6.153026 
O 	 3.095867 	 6.418278 	 -4.036454 
O 	 -6.811209 	 5.169422 	 -2.403942 
O 	 -0.306539 	 6.480000 	 -0.215079 
O 	 -0.469935 	 3.475964 	 5.128611 
O 	 3.532626 	 0.806855 	 2.596574 
O 	 -1.603646 	 -2.202045 	 1.289226 
O 	 2.702829 	 3.017161 	 6.625206 
O 	 -5.952814 	 -0.607502 	 -6.767752 
O 	 5.158657 	 -5.394825 	 1.769772 
O 	 -0.898137 	 1.252778 	 3.303665 
O 	 0.794279 	 -6.954193 	 -2.745326 
O 	 -6.488635 	 -3.372953 	 2.136777 
O 	 -5.485159 	 -0.626171 	 2.478450 
O 	 -2.566252 	 4.530998 	 -3.740514 
O 	 -5.792474 	 1.891095 	 -3.948261 
O 	 -4.750889 	 -6.552785 	 -5.472563 
O 	 1.210272 	 -1.280895 	 1.985313 
O 	 3.410908 	 4.057222 	 -2.393870 
O 	 0.716606 	 -0.375138 	 -3.672686 
O 	 -0.727594 	 5.807639 	 2.283872 
O 	 3.127832 	 -3.369514 	 4.733441 
O 	 7.259584 	 7.219438 	 -0.065311 
O 	 1.688642 	 -3.493209 	 -0.917237 
O 	 1.494001 	 -5.918775 	 0.481927 
O 	 0.334337 	 3.146230 	 1.765946 
O 	 -1.956520 	 -1.327248 	 -7.149690 
O 	 0.591776 	 1.044583 	 6.897019 
O 	 4.691587 	 -3.059785 	 -0.043064 
O 	 -3.072341 	 -0.692046 	 -0.278988 
O 	 -4.658554 	 -4.483823 	 0.332914 
O 	 -2.285673 	 3.255141 	 -6.678432 
O 	 -2.125245 	 -4.384598 	 -6.365042 
O 	 7.397542 	 2.718170 	 -6.597173 
O 	 -7.473058 	 -3.992162 	 -0.986343 
O 	 -3.068645 	 6.767188 	 -1.881325 
O 	 -4.026679 	 -2.935231 	 -4.292579 
O 	 5.471875 	 -1.270151 	 3.659712 
O 	 -5.221022 	 3.831299 	 3.207812 
O 	 1.387089 	 -6.293414 	 6.168769 
O 	 -4.983804 	 5.584874 	 6.933336 
O 	 -4.474834 	 -6.613405 	 6.020445 
O 	 1.629102 	 3.614817 	 -4.923695 
O 	 2.685505 	 6.355523 	 -0.893110 
O 	 6.370996 	 -1.117671 	 -5.484238 
O 	 -1.472959 	 -7.012793 	 -7.209717 
O 	 -2.846344 	 0.919185 	 -2.501465 
O 	 5.225934 	 3.928758 	 2.363733 
O 	 -4.775260 	 2.158382 	 -6.991829 
O 	 -3.730116 	 -4.568450 	 4.268563 
O 	 -6.705666 	 5.324179 	 4.778382 
O 	 4.407009 	 2.231362 	 -5.299481 
O 	 0.986709 	 -3.465103 	 6.366002 
O 	 2.929336 	 1.250842 	 -2.926882 
O 	 4.512340 	 -2.450809 	 -2.915727 
O 	 4.598389 	 1.089801 	 -0.449680 
O 	 -1.080202 	 6.787053 	 -4.637199 
O 	 3.284649 	 -0.717828 	 -5.122874 
O 	 3.499798 	 5.804661 	 6.006703 
O 	 -4.362174 	 -6.616166 	 2.346155 
O 	 6.865151 	 0.563374 	 -3.244165 
O 	 4.096753 	 7.129061 	 -6.603519 
O 	 0.508466 	 -3.095301 	 -5.372120 
O 	 3.764674 	 -0.498641 	 6.277486 
O 	 -0.166446 	 1.617294 	 -5.452943 
O 	 -3.577806 	 1.255850 	 1.886389 
O 	 -2.508679 	 0.049830 	 5.325111 
O 	 -3.160361 	 6.106062 	 3.797722 
O 	 -4.386761 	 -3.462797 	 7.087956 
O 	 -2.095945 	 5.423721 	 6.472407 
O 	 -4.055094 	 -0.210749 	 -4.547953 
O 	 -0.197684 	 4.396527 	 -2.446234 
O 	 7.408817 	 -4.188704 	 6.680082 
O 	 3.758682 	 -3.011818 	 -7.311995 
O 	 2.678825 	 3.263166 	 3.455209 
O 	 -1.681457 	 -5.595686 	 -2.611816 
O 	 -2.848661 	 3.532722 	 0.459670 
K 	 6.850885 	 6.309668 	 2.291741 
