333
conformation = 50
H 	 -4.690711 	 6.244139 	 5.054496 
H 	 -4.647729 	 -7.430987 	 5.872391 
H 	 6.681155 	 3.281582 	 -4.317594 
H 	 -7.046067 	 2.782227 	 -5.188504 
H 	 -2.969009 	 6.204660 	 -2.411666 
H 	 -3.020341 	 7.325400 	 -3.494021 
H 	 -7.488381 	 7.441750 	 3.446164 
H 	 -5.941635 	 7.063261 	 3.526352 
H 	 -3.823242 	 4.941992 	 0.708615 
H 	 -4.298378 	 5.027699 	 -0.751326 
H 	 -6.451899 	 4.323208 	 -1.757413 
H 	 -5.801163 	 5.810677 	 -2.096970 
H 	 -0.487014 	 2.736445 	 3.862081 
H 	 -1.270506 	 4.010470 	 3.337371 
H 	 -4.200368 	 -1.231513 	 -1.403751 
H 	 -2.714938 	 -1.299845 	 -1.888820 
H 	 -0.774982 	 4.474641 	 7.372148 
H 	 -1.146361 	 4.959179 	 -5.995136 
H 	 -2.742831 	 -3.020907 	 -1.786069 
H 	 -1.515471 	 -3.950581 	 -1.618446 
H 	 5.294874 	 7.034464 	 4.649564 
H 	 5.246001 	 -6.529924 	 3.773009 
H 	 -0.145733 	 -1.212354 	 -1.656125 
H 	 -0.996684 	 0.052110 	 -2.171638 
H 	 4.386642 	 -3.328022 	 -2.397042 
H 	 4.326017 	 -2.650522 	 -0.938162 
H 	 -6.097441 	 -1.524531 	 0.202051 
H 	 -4.910875 	 -0.556062 	 0.567713 
H 	 3.238699 	 7.236001 	 -6.409199 
H 	 2.296189 	 -6.466048 	 -6.230612 
H 	 -6.524361 	 -6.832253 	 -1.606223 
H 	 -4.964516 	 -6.880012 	 -1.494947 
H 	 5.551377 	 5.191576 	 -3.184439 
H 	 4.389628 	 4.277526 	 -3.227116 
H 	 -2.256140 	 1.888213 	 -5.522152 
H 	 -3.068731 	 0.712354 	 -5.919215 
H 	 0.165842 	 1.302957 	 5.604725 
H 	 -1.225726 	 0.641684 	 5.914867 
H 	 2.336428 	 0.285892 	 -7.102130 
H 	 3.486454 	 0.535346 	 6.687719 
H 	 -0.204771 	 -5.584941 	 5.766191 
H 	 -0.211035 	 -4.834540 	 7.067846 
H 	 3.748066 	 -1.879418 	 7.479456 
H 	 3.500191 	 -3.486207 	 7.245778 
H 	 -4.913549 	 3.455673 	 5.221531 
H 	 -6.229443 	 4.129321 	 4.720774 
H 	 -3.491107 	 -6.449544 	 2.237249 
H 	 -3.513763 	 -6.924466 	 3.784523 
H 	 3.635951 	 2.720006 	 0.592592 
H 	 3.583588 	 3.426363 	 1.982992 
H 	 3.002417 	 7.112590 	 -2.087022 
H 	 2.143264 	 -6.787994 	 -2.896568 
H 	 1.137705 	 -4.362602 	 -3.870264 
H 	 0.225151 	 -5.251550 	 -2.939716 
H 	 3.593614 	 -5.650285 	 6.426529 
H 	 2.033023 	 -5.368103 	 6.139005 
H 	 -5.468648 	 -4.167538 	 -6.003586 
H 	 -5.073650 	 -4.056827 	 -4.511139 
H 	 -4.762309 	 1.217893 	 6.580389 
H 	 -5.329485 	 1.955244 	 -7.155981 
H 	 6.351491 	 -7.248337 	 -3.032410 
H 	 7.255311 	 6.936996 	 -4.007265 
H 	 -5.546523 	 0.889895 	 -0.564879 
H 	 -5.925069 	 2.367618 	 -0.621455 
H 	 -6.552999 	 5.940738 	 -6.853752 
H 	 -7.356876 	 5.189650 	 6.939593 
H 	 -4.859230 	 -1.741642 	 -5.461401 
H 	 -4.136141 	 -1.332742 	 -4.155284 
H 	 -3.199136 	 3.199953 	 2.332738 
H 	 -4.513211 	 3.822367 	 2.764450 
H 	 6.783783 	 3.189820 	 4.695884 
H 	 5.988779 	 4.526387 	 4.488381 
H 	 -2.632082 	 2.463679 	 6.502377 
H 	 -2.625826 	 2.939270 	 4.954198 
H 	 2.545536 	 4.370597 	 -7.349107 
H 	 3.584826 	 3.336202 	 7.239409 
H 	 3.417940 	 0.365212 	 -1.050896 
H 	 2.859600 	 0.625428 	 -2.420322 
H 	 6.730118 	 -1.148149 	 -3.522469 
H 	 6.248690 	 -2.475428 	 -4.284461 
H 	 1.977238 	 -4.050183 	 -5.955058 
H 	 3.076962 	 -4.466077 	 -4.983586 
H 	 6.610382 	 1.328256 	 -0.150159 
H 	 7.258239 	 -0.027485 	 0.119345 
H 	 -2.338542 	 -3.711162 	 0.577515 
H 	 -1.862819 	 -4.009182 	 1.930863 
H 	 -5.628553 	 7.324191 	 -3.940762 
H 	 -6.015449 	 -6.878630 	 -5.356662 
H 	 2.262516 	 -1.516275 	 -2.674656 
H 	 1.685601 	 -1.174285 	 -4.104543 
H 	 4.712124 	 4.901579 	 6.083628 
H 	 3.622023 	 5.981035 	 5.498444 
H 	 -3.370254 	 -5.373360 	 -5.163364 
H 	 -2.126210 	 -6.084176 	 -4.898985 
H 	 -1.201632 	 -3.816297 	 -4.071530 
H 	 -2.561368 	 -3.435238 	 -4.616638 
H 	 2.595729 	 1.906978 	 5.125540 
H 	 1.038003 	 1.640467 	 3.583161 
H 	 -3.009462 	 -0.822783 	 4.571762 
H 	 -2.173703 	 0.115160 	 3.605217 
H 	 -0.402950 	 6.558794 	 2.584719 
H 	 -1.895853 	 6.669203 	 2.494892 
H 	 5.484075 	 -4.511989 	 -4.679902 
H 	 4.937368 	 -3.385251 	 -5.748394 
H 	 6.699303 	 0.551555 	 5.606553 
H 	 -7.143096 	 1.360298 	 6.304814 
H 	 5.152788 	 -2.377489 	 4.994114 
H 	 4.065930 	 -3.559033 	 5.037234 
H 	 3.497162 	 2.387070 	 -4.491514 
H 	 3.104848 	 3.756241 	 -5.172823 
H 	 7.071792 	 -5.033123 	 -2.304263 
H 	 6.136836 	 -5.931794 	 -1.428150 
H 	 -4.689804 	 5.413695 	 -7.274793 
H 	 -3.194346 	 4.752614 	 -7.023675 
H 	 5.307446 	 -6.840960 	 -7.203490 
H 	 5.619755 	 -6.017185 	 6.448629 
H 	 5.084620 	 5.627569 	 -6.499355 
H 	 5.408528 	 6.647203 	 -5.367116 
H 	 3.862921 	 0.386880 	 -5.800012 
H 	 3.624434 	 0.146613 	 -4.308622 
H 	 1.333181 	 -3.243503 	 1.893332 
H 	 1.131055 	 -4.445499 	 1.055965 
H 	 4.984844 	 -0.772538 	 0.215032 
H 	 3.989507 	 -1.396884 	 1.127498 
H 	 -6.594913 	 -5.378739 	 7.295684 
H 	 -7.564258 	 -5.547217 	 -6.414853 
H 	 0.078701 	 -2.530842 	 -6.254619 
H 	 0.412791 	 -2.515501 	 7.131950 
H 	 -0.429577 	 -6.991481 	 -6.939147 
H 	 -0.464501 	 7.203181 	 -5.558968 
H 	 0.485683 	 0.352953 	 1.576204 
H 	 1.946483 	 -0.061575 	 1.776371 
H 	 2.116146 	 -6.406240 	 2.314279 
H 	 1.769931 	 7.083316 	 1.510384 
H 	 -3.048987 	 0.240835 	 1.433335 
H 	 -4.141705 	 1.453654 	 1.507688 
H 	 -4.124608 	 -5.952908 	 -6.901141 
H 	 -2.975688 	 -6.899812 	 -7.223622 
H 	 0.933835 	 3.548857 	 5.620018 
H 	 0.881932 	 5.036891 	 5.699666 
H 	 -1.205188 	 -5.817127 	 3.558147 
H 	 -0.380455 	 -4.440776 	 3.786495 
H 	 -6.462864 	 -2.891115 	 -3.248770 
H 	 -5.217305 	 -3.398764 	 -2.541072 
H 	 -0.608368 	 1.755041 	 -3.334853 
H 	 -2.015997 	 1.865635 	 -2.830882 
H 	 4.869588 	 5.443930 	 -1.102540 
H 	 4.414591 	 6.004398 	 0.270923 
H 	 -0.437152 	 3.098880 	 0.051745 
H 	 -1.466146 	 3.270919 	 1.206513 
H 	 -0.362194 	 5.703732 	 0.151880 
H 	 -1.832204 	 5.620117 	 -0.399194 
H 	 6.244970 	 0.853904 	 2.958305 
H 	 4.956273 	 1.573449 	 2.351087 
H 	 6.221441 	 3.193161 	 6.772240 
H 	 6.520874 	 3.634312 	 -6.561613 
H 	 -4.211662 	 -3.730971 	 2.368837 
H 	 -5.045583 	 -4.334694 	 3.349935 
H 	 2.103742 	 4.912842 	 1.760802 
H 	 1.823380 	 4.857853 	 0.216518 
H 	 0.341630 	 -0.669347 	 5.896126 
H 	 1.798752 	 -1.251539 	 5.886714 
H 	 -5.460384 	 0.479137 	 -4.748252 
H 	 -6.677643 	 1.018729 	 -3.951009 
H 	 -1.093504 	 -0.258341 	 0.076967 
H 	 -1.423254 	 -1.331567 	 1.193899 
H 	 0.011534 	 7.333472 	 -3.245316 
H 	 -0.670591 	 7.167130 	 -1.865774 
H 	 -3.809515 	 2.638641 	 -1.430938 
H 	 -2.332799 	 3.221992 	 -1.374418 
H 	 -5.882113 	 0.095219 	 2.564066 
H 	 -6.865670 	 -1.091713 	 2.733434 
H 	 4.452385 	 -4.933836 	 -0.641323 
H 	 4.141992 	 -6.426780 	 -0.638962 
H 	 7.079177 	 -1.520472 	 6.264822 
H 	 -7.407728 	 -1.012756 	 4.842200 
H 	 -7.246449 	 -3.985696 	 4.623820 
H 	 -7.044360 	 -5.504839 	 4.701006 
H 	 -6.446733 	 -0.520516 	 -7.209415 
H 	 -7.442345 	 -1.475509 	 -6.447953 
H 	 3.228730 	 4.578623 	 4.115961 
H 	 2.236111 	 3.407492 	 3.938017 
H 	 5.821647 	 -2.851927 	 3.369985 
H 	 6.956876 	 -3.658156 	 2.587797 
H 	 6.546136 	 3.730692 	 -1.185561 
H 	 7.270683 	 4.046304 	 0.184070 
H 	 -0.263586 	 5.066502 	 -3.820754 
H 	 -1.300469 	 6.044355 	 -4.192910 
H 	 -4.652343 	 -2.610625 	 5.696936 
H 	 -4.600389 	 -2.303056 	 4.091934 
H 	 7.222432 	 4.185775 	 2.269494 
H 	 -7.106104 	 5.652323 	 1.923536 
H 	 4.109978 	 -5.485391 	 1.685747 
H 	 3.882423 	 -4.583843 	 2.884422 
H 	 -7.429973 	 -3.738436 	 0.118770 
H 	 6.574506 	 -2.905663 	 -0.789205 
H 	 4.138616 	 -0.230421 	 2.877626 
H 	 3.753322 	 -1.681594 	 3.406370 
H 	 -0.890010 	 -1.725486 	 -4.571990 
H 	 -0.178656 	 -0.341022 	 -5.241809 
H 	 0.947036 	 -3.216532 	 -1.909084 
H 	 1.330570 	 -2.821651 	 -0.432382 
H 	 0.519326 	 4.065931 	 -1.871239 
H 	 1.361619 	 3.546183 	 -3.114254 
H 	 0.019117 	 -6.383603 	 1.091156 
H 	 -0.440683 	 -5.909977 	 -0.317182 
H 	 1.343239 	 2.120605 	 0.519859 
H 	 1.812616 	 2.299924 	 -0.914721 
H 	 -1.165836 	 -2.214836 	 3.648735 
H 	 0.198014 	 -2.510704 	 4.413928 
H 	 4.147722 	 2.132605 	 4.741002 
H 	 0.177111 	 1.148389 	 -6.992880 
H 	 -3.057050 	 -6.112870 	 -0.109811 
H 	 -3.516362 	 7.253811 	 -0.068330 
H 	 -7.202726 	 -6.426092 	 1.478233 
H 	 6.561329 	 -5.772162 	 0.587709 
H 	 5.665667 	 0.853406 	 -2.475737 
H 	 5.687344 	 0.844809 	 -4.101698 
H 	 1.902348 	 7.311595 	 6.450218 
H 	 1.969572 	 -7.207001 	 4.912563 
H 	 0.700619 	 2.026391 	 -5.752995 
O 	 -4.612234 	 7.229353 	 4.921433 
O 	 7.246700 	 3.527758 	 -5.061368 
O 	 -2.831497 	 6.389486 	 -3.363031 
O 	 -6.684070 	 7.202092 	 2.882010 
O 	 -3.746471 	 5.522090 	 -0.082018 
O 	 -5.658463 	 4.843509 	 -2.122572 
O 	 -1.378075 	 3.034383 	 3.394818 
O 	 -3.642749 	 -1.501806 	 -2.155045 
O 	 -1.467485 	 4.492875 	 -6.817471 
O 	 -2.430319 	 -3.796398 	 -1.285717 
O 	 5.801311 	 -7.073232 	 4.379785 
O 	 -0.980510 	 -0.681774 	 -1.548618 
O 	 4.717152 	 -3.438604 	 -1.462660 
O 	 -5.564787 	 -0.800232 	 -0.130084 
O 	 2.292617 	 -7.426167 	 -6.518453 
O 	 -5.724483 	 -7.322443 	 -1.952843 
O 	 5.183047 	 4.391522 	 -2.715816 
O 	 -3.074242 	 1.696531 	 -6.072032 
O 	 -0.283895 	 0.731556 	 6.294793 
O 	 3.176558 	 -0.090122 	 7.465456 
O 	 0.144811 	 -5.646612 	 6.671423 
O 	 4.169255 	 -2.785500 	 -7.312559 
O 	 -5.252611 	 4.234974 	 4.651926 
O 	 -2.936251 	 -6.592851 	 3.053486 
O 	 4.231085 	 3.017323 	 1.306289 
O 	 3.031743 	 -6.974837 	 -2.557963 
O 	 0.409327 	 -4.328374 	 -3.224672 
O 	 2.926134 	 -5.365256 	 5.762447 
O 	 -4.676224 	 -4.015793 	 -5.463962 
O 	 -5.621290 	 1.349690 	 7.015883 
O 	 6.360244 	 6.825850 	 -3.644559 
O 	 -5.225976 	 1.772110 	 -0.886899 
O 	 -6.719789 	 5.923577 	 7.093760 
O 	 -4.382406 	 -1.018964 	 -5.008246 
O 	 -4.041322 	 3.477064 	 1.964616 
O 	 6.724300 	 4.008643 	 4.184727 
O 	 -3.172176 	 2.768704 	 5.753873 
O 	 3.497327 	 4.166249 	 -7.118481 
O 	 3.047155 	 1.073404 	 -1.550633 
O 	 7.022439 	 -1.863756 	 -4.126351 
O 	 2.229465 	 -4.793292 	 -5.317493 
O 	 6.397828 	 0.345415 	 -0.057958 
O 	 -2.339216 	 -3.297123 	 1.443337 
O 	 -6.056000 	 7.192431 	 -4.826270 
O 	 2.530460 	 -1.129022 	 -3.547917 
O 	 4.444862 	 5.433228 	 5.327590 
O 	 -2.889049 	 -5.775469 	 -4.424206 
O 	 -1.756008 	 -3.026403 	 -4.188115 
O 	 0.980323 	 2.056650 	 4.472634 
O 	 -2.115764 	 -0.561653 	 4.303020 
O 	 -1.205722 	 5.998740 	 2.629051 
O 	 4.899139 	 -3.724777 	 -4.810967 
O 	 6.917555 	 1.495291 	 5.766693 
O 	 4.455996 	 -2.828531 	 4.527226 
O 	 2.995249 	 3.237381 	 -4.333954 
O 	 6.881249 	 -5.962198 	 -2.027913 
O 	 -4.110775 	 4.911233 	 -6.675345 
O 	 5.117565 	 -5.971383 	 7.274449 
O 	 5.112366 	 6.572445 	 -6.278685 
O 	 4.089608 	 0.757441 	 -4.919600 
O 	 1.734446 	 -3.679328 	 1.131573 
O 	 4.184794 	 -1.395198 	 0.159975 
O 	 -6.634925 	 -5.616451 	 -6.632985 
O 	 0.545087 	 -3.009870 	 -6.935621 
O 	 -0.988506 	 -7.080740 	 -6.134423 
O 	 1.420449 	 0.711614 	 1.535838 
O 	 1.494827 	 -6.911188 	 1.762929 
O 	 -3.958143 	 0.503331 	 1.668185 
O 	 -3.792817 	 -6.500680 	 7.290819 
O 	 0.717831 	 4.270760 	 6.257934 
O 	 -0.325717 	 -5.425490 	 3.827070 
O 	 -5.909027 	 -3.737778 	 -3.103646 
O 	 -1.452773 	 1.316925 	 -3.434393 
O 	 4.860397 	 6.223958 	 -0.529743 
O 	 -1.372814 	 3.187120 	 0.242366 
O 	 -0.875902 	 5.756951 	 -0.678760 
O 	 5.262256 	 1.050242 	 3.123079 
O 	 6.326019 	 3.990677 	 7.379728 
O 	 -5.082447 	 -3.571900 	 2.773248 
O 	 2.059706 	 5.500711 	 0.942755 
O 	 0.885495 	 -1.478555 	 5.645433 
O 	 -6.011374 	 1.294554 	 -4.599488 
O 	 -1.280928 	 -0.349808 	 1.050712 
O 	 -0.119414 	 -7.135083 	 -2.414391 
O 	 -2.998258 	 2.884165 	 -1.938183 
O 	 -6.759691 	 -0.144606 	 2.962341 
O 	 4.719038 	 -5.789362 	 -0.191465 
O 	 6.717638 	 -1.195725 	 5.401110 
O 	 -6.917994 	 -4.691934 	 5.233097 
O 	 -6.786581 	 -1.432084 	 -7.191251 
O 	 2.570174 	 4.226429 	 3.523164 
O 	 6.758215 	 -2.884029 	 3.179041 
O 	 7.252016 	 3.381641 	 -0.601412 
O 	 -0.504649 	 5.682613 	 -4.556474 
O 	 -4.369382 	 -1.934263 	 5.028664 
O 	 -7.269705 	 4.753673 	 1.562439 
O 	 3.969289 	 -5.535327 	 2.689708 
O 	 -7.448765 	 -2.881186 	 -0.379462 
O 	 3.505394 	 -0.999335 	 2.735731 
O 	 -0.048272 	 -1.265199 	 -4.836851 
O 	 1.261140 	 -2.439720 	 -1.331818 
O 	 0.404376 	 3.670330 	 -2.764990 
O 	 -0.727592 	 -6.015556 	 0.620553 
O 	 1.471472 	 2.837091 	 -0.171601 
O 	 -0.309788 	 -2.769617 	 3.574380 
O 	 3.521855 	 1.986337 	 5.474884 
O 	 -3.808521 	 -6.703182 	 -0.065956 
O 	 -7.492173 	 -5.623407 	 1.003550 
O 	 6.251982 	 0.799386 	 -3.286473 
O 	 2.046221 	 6.943586 	 5.503691 
O 	 0.606089 	 1.120570 	 -6.083100 
K 	 -4.471617 	 3.795756 	 -4.431241 
