333
conformation = 53
H 	 -4.661392 	 6.242947 	 5.006985 
H 	 -4.570313 	 -7.411234 	 5.859237 
H 	 6.733334 	 3.287024 	 -4.324617 
H 	 -7.007052 	 2.736281 	 -5.169344 
H 	 -2.946307 	 6.186019 	 -2.415646 
H 	 -2.958259 	 7.335931 	 -3.525808 
H 	 -7.461125 	 7.418048 	 3.415137 
H 	 -5.925029 	 7.044883 	 3.554067 
H 	 -3.799335 	 4.942673 	 0.719290 
H 	 -4.282122 	 5.058690 	 -0.763927 
H 	 -6.383745 	 4.325829 	 -1.747589 
H 	 -5.738501 	 5.816637 	 -2.100375 
H 	 -0.432333 	 2.731871 	 3.833022 
H 	 -1.264131 	 4.012796 	 3.324221 
H 	 -4.137136 	 -1.179136 	 -1.403558 
H 	 -2.659427 	 -1.298549 	 -1.869716 
H 	 -0.733096 	 4.441280 	 7.402666 
H 	 -1.062726 	 4.913574 	 -5.955528 
H 	 -2.694535 	 -3.020119 	 -1.784366 
H 	 -1.495263 	 -3.926920 	 -1.652623 
H 	 5.356448 	 6.992585 	 4.652560 
H 	 5.293513 	 -6.538277 	 3.754616 
H 	 -0.104869 	 -1.204875 	 -1.697582 
H 	 -0.935207 	 0.057756 	 -2.190818 
H 	 4.432611 	 -3.337589 	 -2.404973 
H 	 4.347345 	 -2.662839 	 -0.941152 
H 	 -6.038692 	 -1.554106 	 0.176281 
H 	 -4.885806 	 -0.566047 	 0.596548 
H 	 3.288477 	 7.236211 	 -6.397617 
H 	 2.319870 	 -6.464798 	 -6.276963 
H 	 -6.495961 	 -6.846634 	 -1.571413 
H 	 -4.921133 	 -6.892961 	 -1.463038 
H 	 5.636960 	 5.183848 	 -3.191723 
H 	 4.402251 	 4.273970 	 -3.232298 
H 	 -2.212239 	 1.897833 	 -5.543329 
H 	 -3.021674 	 0.726239 	 -5.900873 
H 	 0.228964 	 1.318132 	 5.626040 
H 	 -1.186555 	 0.665513 	 5.910072 
H 	 2.390085 	 0.309490 	 -7.095508 
H 	 3.552043 	 0.537223 	 6.714238 
H 	 -0.164036 	 -5.586482 	 5.765522 
H 	 -0.201607 	 -4.875277 	 7.104695 
H 	 3.827750 	 -1.883591 	 7.502892 
H 	 3.543889 	 -3.453068 	 7.247678 
H 	 -4.858684 	 3.435891 	 5.224713 
H 	 -6.168477 	 4.137124 	 4.730384 
H 	 -3.433942 	 -6.391705 	 2.267040 
H 	 -3.494089 	 -6.931495 	 3.804746 
H 	 3.673564 	 2.670786 	 0.594642 
H 	 3.667600 	 3.424681 	 1.998139 
H 	 3.043361 	 7.098511 	 -2.059889 
H 	 2.161141 	 -6.784807 	 -2.864431 
H 	 1.178785 	 -4.363628 	 -3.861917 
H 	 0.243795 	 -5.208736 	 -2.908955 
H 	 3.645814 	 -5.672250 	 6.381064 
H 	 2.074567 	 -5.392573 	 6.171375 
H 	 -5.444517 	 -4.202391 	 -6.003125 
H 	 -5.033079 	 -4.049804 	 -4.506332 
H 	 -4.697236 	 1.221382 	 6.567503 
H 	 -5.265374 	 1.935721 	 -7.171048 
H 	 6.379005 	 -7.253159 	 -3.035457 
H 	 7.314654 	 6.908398 	 -4.019380 
H 	 -5.507982 	 0.905118 	 -0.551224 
H 	 -5.862827 	 2.369209 	 -0.633847 
H 	 -6.509529 	 5.941228 	 -6.847501 
H 	 -7.335933 	 5.196142 	 6.956265 
H 	 -4.812139 	 -1.767666 	 -5.449898 
H 	 -4.091392 	 -1.357326 	 -4.134168 
H 	 -3.117088 	 3.197321 	 2.330556 
H 	 -4.454451 	 3.847311 	 2.717682 
H 	 6.855595 	 3.152636 	 4.733771 
H 	 6.034536 	 4.554329 	 4.522626 
H 	 -2.599630 	 2.490827 	 6.483651 
H 	 -2.594151 	 2.891430 	 4.952472 
H 	 2.594805 	 4.405076 	 -7.330369 
H 	 3.626824 	 3.342086 	 7.221968 
H 	 3.521819 	 0.364016 	 -1.059463 
H 	 2.899773 	 0.683171 	 -2.412299 
H 	 6.743525 	 -1.199920 	 -3.504355 
H 	 6.337969 	 -2.519331 	 -4.271753 
H 	 2.018845 	 -4.072552 	 -5.970017 
H 	 3.122586 	 -4.423191 	 -4.976264 
H 	 6.645208 	 1.326303 	 -0.171072 
H 	 -7.546680 	 -0.051605 	 0.106231 
H 	 -2.319843 	 -3.767940 	 0.591352 
H 	 -1.781684 	 -4.004763 	 1.948783 
H 	 -5.590785 	 7.322593 	 -3.931207 
H 	 -5.928366 	 -6.864370 	 -5.326900 
H 	 2.299245 	 -1.519929 	 -2.711121 
H 	 1.728786 	 -1.174787 	 -4.143314 
H 	 4.755086 	 4.856743 	 6.091543 
H 	 3.665150 	 5.981702 	 5.532376 
H 	 -3.297545 	 -5.407135 	 -5.183214 
H 	 -2.061871 	 -6.086640 	 -4.857545 
H 	 -1.175696 	 -3.799942 	 -4.032750 
H 	 -2.510256 	 -3.396292 	 -4.627921 
H 	 2.622474 	 1.907344 	 5.119160 
H 	 1.087276 	 1.616270 	 3.594030 
H 	 -2.949863 	 -0.744851 	 4.600794 
H 	 -2.120379 	 0.128793 	 3.601103 
H 	 -0.353888 	 6.550352 	 2.598543 
H 	 -1.838862 	 6.691585 	 2.505135 
H 	 5.539705 	 -4.452549 	 -4.689613 
H 	 5.017720 	 -3.431645 	 -5.769532 
H 	 6.753384 	 0.502501 	 5.607565 
H 	 -7.106467 	 1.409775 	 6.246664 
H 	 5.196555 	 -2.387911 	 5.002771 
H 	 4.145604 	 -3.560947 	 5.017036 
H 	 3.559543 	 2.415520 	 -4.480497 
H 	 3.128494 	 3.692005 	 -5.144459 
H 	 7.103771 	 -5.022356 	 -2.343691 
H 	 6.213894 	 -5.940238 	 -1.419999 
H 	 -4.687783 	 5.418169 	 -7.308865 
H 	 -3.150239 	 4.790071 	 -7.019672 
H 	 5.346303 	 -6.814802 	 -7.168428 
H 	 5.647506 	 -6.046889 	 6.446654 
H 	 5.202278 	 5.615373 	 -6.515635 
H 	 5.462931 	 6.654510 	 -5.372426 
H 	 3.921051 	 0.378486 	 -5.822433 
H 	 3.684701 	 0.165209 	 -4.318852 
H 	 1.331066 	 -3.242509 	 1.902244 
H 	 1.133143 	 -4.415818 	 1.077257 
H 	 5.053070 	 -0.785991 	 0.204552 
H 	 4.030288 	 -1.417099 	 1.118108 
H 	 -6.585623 	 -5.334393 	 7.313741 
H 	 -7.538280 	 -5.521153 	 -6.427028 
H 	 0.138810 	 -2.506326 	 -6.207613 
H 	 0.462253 	 -2.499679 	 7.121517 
H 	 -0.384711 	 -6.944509 	 -6.936035 
H 	 -0.438646 	 7.187031 	 -5.596675 
H 	 0.543638 	 0.377548 	 1.573214 
H 	 1.994644 	 -0.053854 	 1.821889 
H 	 2.157006 	 -6.409227 	 2.320508 
H 	 1.846752 	 7.065149 	 1.508705 
H 	 -3.003529 	 0.259479 	 1.392909 
H 	 -4.085770 	 1.453718 	 1.501043 
H 	 -4.088443 	 -5.963884 	 -6.905004 
H 	 -2.919596 	 -6.870229 	 -7.222813 
H 	 1.019832 	 3.579024 	 5.621046 
H 	 0.944215 	 5.034907 	 5.691368 
H 	 -1.155774 	 -5.779611 	 3.555513 
H 	 -0.351248 	 -4.423166 	 3.818771 
H 	 -6.426540 	 -2.910360 	 -3.287127 
H 	 -5.195432 	 -3.429227 	 -2.515279 
H 	 -0.546036 	 1.756624 	 -3.330981 
H 	 -1.972520 	 1.858617 	 -2.803229 
H 	 4.896284 	 5.474247 	 -1.110076 
H 	 4.421229 	 5.995228 	 0.271665 
H 	 -0.394273 	 3.094558 	 0.017801 
H 	 -1.387920 	 3.254514 	 1.198113 
H 	 -0.306612 	 5.756689 	 0.150510 
H 	 -1.789521 	 5.664707 	 -0.415370 
H 	 6.292826 	 0.846904 	 2.950455 
H 	 5.014753 	 1.586481 	 2.360410 
H 	 6.326103 	 3.193329 	 6.800044 
H 	 6.529308 	 3.652994 	 -6.575908 
H 	 -4.144257 	 -3.727108 	 2.407031 
H 	 -5.043082 	 -4.333250 	 3.326171 
H 	 2.167400 	 4.922014 	 1.724382 
H 	 1.847824 	 4.912522 	 0.211681 
H 	 0.393680 	 -0.685948 	 5.895695 
H 	 1.854981 	 -1.260221 	 5.879143 
H 	 -5.417938 	 0.472626 	 -4.722486 
H 	 -6.662059 	 0.979314 	 -3.978849 
H 	 -1.045686 	 -0.222851 	 0.052870 
H 	 -1.345326 	 -1.331955 	 1.180338 
H 	 0.071261 	 7.382256 	 -3.267797 
H 	 -0.652945 	 7.153868 	 -1.902211 
H 	 -3.739312 	 2.600894 	 -1.413801 
H 	 -2.250417 	 3.265500 	 -1.378134 
H 	 -5.886308 	 0.084327 	 2.552315 
H 	 -6.851715 	 -1.080681 	 2.739908 
H 	 4.480536 	 -4.920436 	 -0.662582 
H 	 4.170762 	 -6.421779 	 -0.639028 
H 	 7.085712 	 -1.527086 	 6.294124 
H 	 -7.384785 	 -1.022322 	 4.807691 
H 	 -7.190387 	 -3.970932 	 4.647505 
H 	 -7.002711 	 -5.449826 	 4.659198 
H 	 -6.403783 	 -0.517770 	 -7.218867 
H 	 -7.411530 	 -1.518269 	 -6.430016 
H 	 3.257855 	 4.569212 	 4.155480 
H 	 2.261042 	 3.386449 	 3.905449 
H 	 5.855330 	 -2.833713 	 3.379406 
H 	 6.961024 	 -3.665955 	 2.632130 
H 	 6.581732 	 3.713566 	 -1.171364 
H 	 7.321074 	 4.035541 	 0.156351 
H 	 -0.221556 	 5.074110 	 -3.835767 
H 	 -1.270602 	 5.993110 	 -4.199692 
H 	 -4.606620 	 -2.583020 	 5.701326 
H 	 -4.534761 	 -2.325508 	 4.135165 
H 	 7.283775 	 4.175467 	 2.224990 
H 	 -7.025327 	 5.662583 	 1.937263 
H 	 4.095792 	 -5.507382 	 1.692690 
H 	 3.951745 	 -4.599731 	 2.843729 
H 	 -7.380180 	 -3.753606 	 0.112421 
H 	 6.619734 	 -2.901357 	 -0.794261 
H 	 4.185110 	 -0.260863 	 2.900086 
H 	 3.791443 	 -1.694077 	 3.410320 
H 	 -0.825009 	 -1.698564 	 -4.537613 
H 	 -0.163474 	 -0.337623 	 -5.241077 
H 	 0.998255 	 -3.222490 	 -1.883393 
H 	 1.383423 	 -2.811628 	 -0.404154 
H 	 0.529970 	 4.101573 	 -1.875427 
H 	 1.365206 	 3.531243 	 -3.119624 
H 	 0.089823 	 -6.409850 	 1.121506 
H 	 -0.412096 	 -5.901583 	 -0.316642 
H 	 1.386121 	 2.127609 	 0.505543 
H 	 1.879027 	 2.280426 	 -0.893402 
H 	 -1.099995 	 -2.232010 	 3.670212 
H 	 0.253427 	 -2.531353 	 4.382167 
H 	 4.192196 	 2.080736 	 4.704529 
H 	 0.229985 	 1.145858 	 -6.988923 
H 	 -2.989429 	 -6.117312 	 -0.101303 
H 	 -3.466534 	 7.244697 	 -0.067559 
H 	 -7.172882 	 -6.462816 	 1.467706 
H 	 6.568827 	 -5.783808 	 0.597326 
H 	 5.690173 	 0.872271 	 -2.517890 
H 	 5.721518 	 0.863345 	 -4.136863 
H 	 1.964752 	 7.261613 	 6.484824 
H 	 2.047185 	 -7.202556 	 4.896209 
H 	 0.704973 	 2.064240 	 -5.762102 
O 	 -4.568838 	 7.228068 	 4.922251 
O 	 7.295407 	 3.532587 	 -5.050221 
O 	 -2.785132 	 6.394428 	 -3.377854 
O 	 -6.650608 	 7.201270 	 2.871347 
O 	 -3.704441 	 5.524060 	 -0.077492 
O 	 -5.617440 	 4.845014 	 -2.121586 
O 	 -1.340867 	 3.028159 	 3.401255 
O 	 -3.602088 	 -1.509600 	 -2.154705 
O 	 -1.427453 	 4.490360 	 -6.821580 
O 	 -2.388604 	 -3.791897 	 -1.288991 
O 	 5.842302 	 -7.081973 	 4.383266 
O 	 -0.938375 	 -0.683229 	 -1.550474 
O 	 4.768377 	 -3.435312 	 -1.465120 
O 	 -5.517701 	 -0.787417 	 -0.138326 
O 	 2.327575 	 -7.417481 	 -6.530619 
O 	 -5.683679 	 -7.315096 	 -1.955343 
O 	 5.230254 	 4.386319 	 -2.709875 
O 	 -3.024237 	 1.699492 	 -6.075485 
O 	 -0.244541 	 0.730508 	 6.303428 
O 	 3.230863 	 -0.090580 	 7.468717 
O 	 0.182754 	 -5.650983 	 6.678160 
O 	 4.210953 	 -2.785567 	 -7.299807 
O 	 -5.204189 	 4.237437 	 4.652965 
O 	 -2.890851 	 -6.598671 	 3.058106 
O 	 4.280915 	 3.015075 	 1.295848 
O 	 3.070673 	 -6.978017 	 -2.559975 
O 	 0.457511 	 -4.331962 	 -3.227411 
O 	 2.964181 	 -5.360663 	 5.764069 
O 	 -4.636867 	 -4.021401 	 -5.465380 
O 	 -5.578027 	 1.352263 	 7.006967 
O 	 6.410710 	 6.825628 	 -3.648123 
O 	 -5.188826 	 1.774601 	 -0.883293 
O 	 -6.687355 	 5.918234 	 7.094209 
O 	 -4.345532 	 -1.014687 	 -5.015401 
O 	 -3.988195 	 3.482322 	 1.968172 
O 	 6.769307 	 4.011146 	 4.184471 
O 	 -3.126388 	 2.768409 	 5.754893 
O 	 3.543752 	 4.173694 	 -7.129251 
O 	 3.084515 	 1.070863 	 -1.550222 
O 	 7.059435 	 -1.873078 	 -4.127169 
O 	 2.285086 	 -4.800149 	 -5.308050 
O 	 6.443709 	 0.338231 	 -0.057475 
O 	 -2.298405 	 -3.307868 	 1.443993 
O 	 -6.009870 	 7.198675 	 -4.818703 
O 	 2.558528 	 -1.125018 	 -3.550186 
O 	 4.488783 	 5.436885 	 5.318824 
O 	 -2.845877 	 -5.775867 	 -4.414343 
O 	 -1.711242 	 -3.023991 	 -4.186663 
O 	 1.020481 	 2.058040 	 4.475062 
O 	 -2.067823 	 -0.562318 	 4.307165 
O 	 -1.163956 	 6.004562 	 2.623674 
O 	 4.944159 	 -3.726644 	 -4.812043 
O 	 6.947739 	 1.497329 	 5.765896 
O 	 4.502427 	 -2.829718 	 4.530278 
O 	 3.044047 	 3.234971 	 -4.327781 
O 	 6.929436 	 -5.964590 	 -2.030879 
O 	 -4.073193 	 4.918422 	 -6.671706 
O 	 5.157370 	 -5.970711 	 7.277247 
O 	 5.151620 	 6.573009 	 -6.277115 
O 	 4.138172 	 0.759543 	 -4.914018 
O 	 1.784941 	 -3.673255 	 1.138424 
O 	 4.226423 	 -1.388230 	 0.160026 
O 	 -6.596527 	 -5.623253 	 -6.627438 
O 	 0.588965 	 -3.004237 	 -6.934533 
O 	 -0.943151 	 -7.090174 	 -6.119271 
O 	 1.464867 	 0.706000 	 1.539692 
O 	 1.539590 	 -6.915244 	 1.763215 
O 	 -3.918311 	 0.517933 	 1.678621 
O 	 -3.744499 	 -6.502087 	 7.299161 
O 	 0.772850 	 4.269715 	 6.255043 
O 	 -0.277759 	 -5.433028 	 3.825926 
O 	 -5.870855 	 -3.735312 	 -3.102279 
O 	 -1.396939 	 1.314195 	 -3.432188 
O 	 4.895297 	 6.228469 	 -0.527948 
O 	 -1.330768 	 3.189417 	 0.249837 
O 	 -0.833485 	 5.752775 	 -0.675470 
O 	 5.306056 	 1.048074 	 3.114704 
O 	 6.365467 	 3.993407 	 7.378517 
O 	 -5.047576 	 -3.571087 	 2.777076 
O 	 2.097285 	 5.498960 	 0.944539 
O 	 0.941142 	 -1.476758 	 5.650294 
O 	 -5.961266 	 1.285751 	 -4.613853 
O 	 -1.247561 	 -0.354462 	 1.049599 
O 	 -0.072500 	 -7.140467 	 -2.411895 
O 	 -2.953050 	 2.888125 	 -1.939961 
O 	 -6.706167 	 -0.140866 	 2.964365 
O 	 4.770442 	 -5.780085 	 -0.177764 
O 	 6.770283 	 -1.196590 	 5.414709 
O 	 -6.881935 	 -4.683120 	 5.230361 
O 	 -6.748867 	 -1.433345 	 -7.189529 
O 	 2.616486 	 4.221603 	 3.516820 
O 	 6.802687 	 -2.873042 	 3.179534 
O 	 7.300931 	 3.382434 	 -0.594484 
O 	 -0.446966 	 5.678237 	 -4.557462 
O 	 -4.330166 	 -1.938509 	 5.031515 
O 	 -7.233680 	 4.756283 	 1.566721 
O 	 4.004408 	 -5.533824 	 2.681868 
O 	 -7.401169 	 -2.879203 	 -0.372532 
O 	 3.550056 	 -1.006100 	 2.734158 
O 	 -0.005677 	 -1.269664 	 -4.836950 
O 	 1.312008 	 -2.439591 	 -1.332800 
O 	 0.450474 	 3.671779 	 -2.760815 
O 	 -0.686082 	 -6.014885 	 0.631557 
O 	 1.512315 	 2.828764 	 -0.163344 
O 	 -0.258054 	 -2.774894 	 3.568893 
O 	 3.571148 	 1.990134 	 5.467355 
O 	 -3.761319 	 -6.702220 	 -0.064164 
O 	 -7.446138 	 -5.626435 	 1.014542 
O 	 6.296530 	 0.799465 	 -3.281307 
O 	 2.092185 	 6.943415 	 5.501287 
O 	 0.642931 	 1.122417 	 -6.074101 
K 	 -4.429847 	 3.794053 	 -4.427849 
