333
conformation = 65
H 	 -4.514739 	 6.289558 	 4.846665 
H 	 -4.218745 	 -7.267047 	 5.804165 
H 	 6.897599 	 3.407792 	 -4.264272 
H 	 -6.974965 	 2.727633 	 -5.069226 
H 	 -2.875602 	 6.252830 	 -2.539477 
H 	 -2.758978 	 7.404990 	 -3.632115 
H 	 7.479328 	 7.307971 	 3.284057 
H 	 -5.940694 	 7.105546 	 3.604806 
H 	 -3.670427 	 4.979910 	 0.699914 
H 	 -4.213590 	 5.326609 	 -0.739264 
H 	 -6.200829 	 4.471404 	 -1.594763 
H 	 -5.637488 	 5.862076 	 -2.030087 
H 	 -0.258668 	 2.799010 	 3.680299 
H 	 -1.203476 	 4.025016 	 3.315118 
H 	 -3.964601 	 -0.977673 	 -1.514706 
H 	 -2.518894 	 -1.180349 	 -1.962183 
H 	 -0.490330 	 4.352214 	 7.457420 
H 	 -0.739144 	 4.680176 	 -6.025609 
H 	 -2.674731 	 -2.978073 	 -1.751819 
H 	 -1.386506 	 -3.817062 	 -1.829755 
H 	 5.615387 	 6.959359 	 4.590163 
H 	 5.406847 	 -6.665185 	 3.733935 
H 	 0.028824 	 -1.176574 	 -1.789944 
H 	 -0.774681 	 0.045038 	 -2.278477 
H 	 4.616941 	 -3.337007 	 -2.415291 
H 	 4.482499 	 -2.686337 	 -0.936194 
H 	 -5.755175 	 -1.557175 	 -0.128357 
H 	 -4.848893 	 -0.512931 	 0.663564 
H 	 3.361792 	 7.286097 	 -6.356862 
H 	 2.400350 	 -6.365241 	 -6.436149 
H 	 -6.348959 	 -6.889640 	 -1.563163 
H 	 -4.806364 	 -6.981577 	 -1.320587 
H 	 5.960164 	 5.128148 	 -3.090109 
H 	 4.611251 	 4.241553 	 -3.157960 
H 	 -1.987717 	 2.085638 	 -5.653380 
H 	 -2.970994 	 0.814450 	 -5.823477 
H 	 0.483949 	 1.346883 	 5.638331 
H 	 -1.002405 	 0.768372 	 5.891167 
H 	 2.648015 	 0.404066 	 -7.103817 
H 	 3.830459 	 0.638729 	 6.803368 
H 	 0.027113 	 -5.592116 	 5.772678 
H 	 -0.090413 	 -4.952823 	 7.250764 
H 	 4.079323 	 -1.790137 	 -7.281149 
H 	 3.639707 	 -3.268512 	 7.189484 
H 	 -4.557206 	 3.561166 	 5.197887 
H 	 -5.979778 	 4.297727 	 4.710260 
H 	 -3.239442 	 -6.117145 	 2.386778 
H 	 -3.365576 	 -6.896061 	 3.733287 
H 	 3.803071 	 2.578160 	 0.725064 
H 	 4.019111 	 3.443768 	 2.035223 
H 	 3.211173 	 7.188966 	 -2.015729 
H 	 2.259292 	 -6.789329 	 -2.618540 
H 	 1.353889 	 -4.511004 	 -3.920204 
H 	 0.393085 	 -5.156225 	 -2.829313 
H 	 3.797455 	 -5.781055 	 6.265171 
H 	 2.337506 	 -5.435580 	 6.330027 
H 	 -5.260026 	 -4.347374 	 -5.964216 
H 	 -4.829101 	 -3.953739 	 -4.534991 
H 	 -4.584941 	 1.281342 	 6.416908 
H 	 -5.077709 	 1.916461 	 -7.151682 
H 	 6.522128 	 -7.235802 	 -3.071676 
H 	 -7.403737 	 6.862555 	 -4.078664 
H 	 -5.358244 	 0.965307 	 -0.541362 
H 	 -5.722887 	 2.495319 	 -0.704785 
H 	 -6.424220 	 6.038542 	 -6.851516 
H 	 -7.258677 	 5.247218 	 7.105050 
H 	 -4.561977 	 -1.785724 	 -5.424575 
H 	 -3.922328 	 -1.251543 	 -4.191873 
H 	 -2.914919 	 3.314225 	 2.362652 
H 	 -4.270035 	 3.995144 	 2.690397 
H 	 6.971923 	 3.250389 	 4.690549 
H 	 6.328768 	 4.599768 	 4.638815 
H 	 -2.355670 	 2.691544 	 6.511989 
H 	 -2.346541 	 2.694211 	 4.965389 
H 	 2.815622 	 4.625397 	 -7.308980 
H 	 3.791554 	 3.455348 	 7.131888 
H 	 3.788527 	 0.444771 	 -1.168064 
H 	 3.008964 	 0.836734 	 -2.467740 
H 	 6.750038 	 -1.327105 	 -3.472094 
H 	 6.592607 	 -2.654594 	 -4.192763 
H 	 2.072989 	 -4.230140 	 -5.991122 
H 	 3.313946 	 -4.294356 	 -4.996272 
H 	 6.755469 	 1.320599 	 -0.254105 
H 	 -7.376609 	 -0.014708 	 -0.033018 
H 	 -2.273063 	 -3.782432 	 0.619213 
H 	 -1.456805 	 -3.781313 	 1.989417 
H 	 -5.436001 	 7.418824 	 -3.876541 
H 	 -5.571034 	 -6.780918 	 -5.207053 
H 	 2.360031 	 -1.545582 	 -2.761745 
H 	 1.887270 	 -1.148918 	 -4.207890 
H 	 4.796683 	 4.922238 	 6.037447 
H 	 3.914683 	 6.004657 	 5.667769 
H 	 -3.129196 	 -5.449367 	 -5.159231 
H 	 -1.800914 	 -6.063150 	 -4.659897 
H 	 -1.009497 	 -3.713692 	 -3.874603 
H 	 -2.349116 	 -3.196995 	 -4.709868 
H 	 2.862729 	 1.984007 	 5.068533 
H 	 1.325988 	 1.486146 	 3.731782 
H 	 -2.744913 	 -0.450033 	 4.710803 
H 	 -1.922572 	 0.163480 	 3.604768 
H 	 -0.122473 	 6.512519 	 2.703052 
H 	 -1.632214 	 6.827397 	 2.628000 
H 	 5.833297 	 -4.375207 	 -4.690175 
H 	 5.172460 	 -3.574706 	 -5.815662 
H 	 6.930925 	 0.613457 	 5.631284 
H 	 -6.879672 	 1.719108 	 5.977586 
H 	 5.353361 	 -2.390592 	 5.133022 
H 	 4.434979 	 -3.604903 	 5.016392 
H 	 3.802395 	 2.443447 	 -4.427770 
H 	 3.220700 	 3.604201 	 -5.248622 
H 	 7.259482 	 -5.015359 	 -2.425937 
H 	 6.470486 	 -5.842709 	 -1.349844 
H 	 -4.494735 	 5.325281 	 7.491503 
H 	 -3.037152 	 5.074735 	 -7.040452 
H 	 5.436490 	 -6.736184 	 -7.064269 
H 	 5.772115 	 -6.169588 	 6.458456 
H 	 5.704488 	 5.803797 	 -6.611679 
H 	 5.708036 	 6.721795 	 -5.383577 
H 	 4.228283 	 0.486140 	 -5.806875 
H 	 3.860591 	 0.151233 	 -4.337906 
H 	 1.503585 	 -3.073961 	 1.848277 
H 	 1.298500 	 -4.294983 	 1.033002 
H 	 5.303554 	 -0.884030 	 0.107087 
H 	 4.110178 	 -1.444300 	 1.077037 
H 	 -6.464062 	 -5.168824 	 7.373509 
H 	 -7.398094 	 -5.461983 	 -6.432433 
H 	 0.532014 	 -2.345316 	 -6.206711 
H 	 0.750403 	 -2.368334 	 7.178464 
H 	 -0.286529 	 -6.639205 	 -6.803367 
H 	 -0.237851 	 7.016636 	 -5.761159 
H 	 0.689395 	 0.417841 	 1.538309 
H 	 2.191586 	 0.077544 	 2.030493 
H 	 2.339761 	 -6.427650 	 2.342740 
H 	 2.184698 	 7.186356 	 1.515417 
H 	 -2.917350 	 0.440477 	 1.273111 
H 	 -3.862501 	 1.567551 	 1.431121 
H 	 -4.005927 	 -5.956144 	 -6.912293 
H 	 -2.663623 	 -6.723547 	 -7.199276 
H 	 1.307292 	 3.603093 	 5.618207 
H 	 1.177275 	 5.153734 	 5.770226 
H 	 -1.014041 	 -5.649631 	 3.528564 
H 	 -0.193510 	 -4.453319 	 3.900850 
H 	 -6.275378 	 -2.898268 	 -3.427018 
H 	 -5.171718 	 -3.460473 	 -2.370789 
H 	 -0.350386 	 1.858791 	 -3.348899 
H 	 -1.785064 	 1.818058 	 -2.823555 
H 	 4.988994 	 5.576729 	 -1.174041 
H 	 4.457993 	 5.940521 	 0.157883 
H 	 -0.262692 	 3.125427 	 -0.066026 
H 	 -0.986399 	 3.211563 	 1.237637 
H 	 -0.222058 	 6.093455 	 0.150185 
H 	 -1.611839 	 5.805189 	 -0.373393 
H 	 6.461538 	 0.854249 	 2.931100 
H 	 5.288864 	 1.755494 	 2.360981 
H 	 6.790153 	 3.167599 	 6.930162 
H 	 6.613659 	 3.814377 	 -6.542549 
H 	 -3.975876 	 -3.525099 	 2.494614 
H 	 -5.165896 	 -4.297090 	 3.274306 
H 	 2.434588 	 4.885939 	 1.683536 
H 	 1.933941 	 5.048273 	 0.150084 
H 	 0.640389 	 -0.593578 	 5.883681 
H 	 2.104916 	 -1.204519 	 5.847311 
H 	 -5.166523 	 0.481984 	 -4.719105 
H 	 -6.527401 	 0.961446 	 -4.183586 
H 	 -0.924947 	 -0.177456 	 0.098521 
H 	 -1.032755 	 -1.313610 	 1.077950 
H 	 0.217869 	 -7.345536 	 -3.327469 
H 	 -0.467619 	 7.084065 	 -2.081510 
H 	 -3.331676 	 2.455247 	 -1.326223 
H 	 -2.198318 	 3.385670 	 -1.338172 
H 	 -5.692781 	 0.114245 	 2.437844 
H 	 -6.815059 	 -0.975426 	 2.715259 
H 	 4.756445 	 -4.863944 	 -0.625100 
H 	 4.447242 	 -6.397652 	 -0.529030 
H 	 7.375155 	 -1.430398 	 6.330535 
H 	 -7.241143 	 -1.171776 	 4.791696 
H 	 -7.006518 	 -3.730837 	 4.784463 
H 	 -6.851512 	 -5.259371 	 4.505891 
H 	 -6.301053 	 -0.481210 	 -7.172695 
H 	 -7.107934 	 -1.517963 	 -6.335001 
H 	 3.326896 	 4.499043 	 4.228140 
H 	 2.291479 	 3.445147 	 3.722319 
H 	 6.051610 	 -2.751325 	 3.417052 
H 	 6.984130 	 -3.662032 	 2.718007 
H 	 6.698797 	 3.620547 	 -1.117059 
H 	 -7.337258 	 4.125804 	 0.187050 
H 	 0.138144 	 5.016115 	 -3.910191 
H 	 -1.149978 	 5.836062 	 -4.274833 
H 	 -4.467521 	 -2.485056 	 5.793651 
H 	 -4.338068 	 -2.523224 	 4.227541 
H 	 7.478509 	 4.233478 	 2.292909 
H 	 -6.754537 	 5.595392 	 2.073911 
H 	 4.080041 	 -5.653603 	 1.641157 
H 	 4.192670 	 -4.525465 	 2.761646 
H 	 -7.105107 	 -3.726580 	 0.054166 
H 	 6.847027 	 -2.812637 	 -0.805948 
H 	 4.418334 	 -0.301802 	 2.986496 
H 	 3.845278 	 -1.696209 	 3.409866 
H 	 -0.625374 	 -1.596443 	 -4.368735 
H 	 -0.111165 	 -0.315124 	 -5.162686 
H 	 1.213553 	 -3.226252 	 -1.820711 
H 	 1.676841 	 -2.622748 	 -0.411883 
H 	 0.620735 	 4.272288 	 -1.932556 
H 	 1.561435 	 3.546882 	 -3.119787 
H 	 0.244907 	 -6.358450 	 1.076321 
H 	 -0.251590 	 -5.908737 	 -0.267651 
H 	 1.606047 	 2.138182 	 0.596884 
H 	 2.169842 	 2.293338 	 -0.785886 
H 	 -0.856651 	 -2.177874 	 3.749934 
H 	 0.589704 	 -2.442646 	 4.271708 
H 	 4.303963 	 1.777853 	 4.646136 
H 	 0.391359 	 1.148720 	 -6.961973 
H 	 -2.717129 	 -6.192192 	 -0.096579 
H 	 -3.321933 	 7.303700 	 0.018779 
H 	 -7.001137 	 -6.469603 	 1.386431 
H 	 6.736749 	 -5.798005 	 0.773803 
H 	 5.749670 	 1.051021 	 -2.618736 
H 	 5.918517 	 0.932032 	 -4.075537 
H 	 2.287035 	 7.195813 	 6.461662 
H 	 2.399739 	 -7.095257 	 5.028076 
H 	 0.685258 	 2.138328 	 -5.852397 
O 	 -4.397399 	 7.261472 	 4.912432 
O 	 -7.395628 	 3.587572 	 -5.004970 
O 	 -2.598212 	 6.461440 	 -3.457456 
O 	 -6.524105 	 7.240647 	 2.818983 
O 	 -3.536449 	 5.570810 	 -0.067756 
O 	 -5.436878 	 4.899474 	 -2.131065 
O 	 -1.198457 	 3.052084 	 3.423837 
O 	 -3.431417 	 -1.491334 	 -2.149894 
O 	 -1.268770 	 4.521901 	 -6.832634 
O 	 -2.215367 	 -3.733715 	 -1.310139 
O 	 6.012178 	 -7.074572 	 4.393659 
O 	 -0.765186 	 -0.634630 	 -1.578795 
O 	 4.976292 	 -3.365942 	 -1.489010 
O 	 -5.324655 	 -0.693092 	 -0.168354 
O 	 2.465585 	 -7.337013 	 -6.603837 
O 	 -5.513375 	 -7.228876 	 -1.967686 
O 	 5.419544 	 4.415788 	 -2.703226 
O 	 -2.812262 	 1.753741 	 -6.097945 
O 	 -0.093247 	 0.785482 	 6.338243 
O 	 3.454771 	 -0.039506 	 7.480112 
O 	 0.326116 	 -5.626289 	 6.700397 
O 	 4.390166 	 -2.743722 	 -7.240576 
O 	 -5.002293 	 4.290523 	 4.651568 
O 	 -2.706958 	 -6.579741 	 3.081797 
O 	 4.490271 	 3.045170 	 1.233276 
O 	 3.224132 	 -6.949583 	 -2.572820 
O 	 0.647231 	 -4.289376 	 -3.235086 
O 	 3.108140 	 -5.273721 	 5.759469 
O 	 -4.489493 	 -3.999724 	 -5.484200 
O 	 -5.381713 	 1.408482 	 6.957533 
O 	 6.616366 	 6.860191 	 -3.683415 
O 	 -5.038901 	 1.841909 	 -0.875486 
O 	 -6.556174 	 5.947027 	 7.090774 
O 	 -4.202632 	 -0.957792 	 -5.044349 
O 	 -3.754373 	 3.553257 	 1.967421 
O 	 6.957579 	 4.055167 	 4.190828 
O 	 -2.954398 	 2.807846 	 5.745810 
O 	 3.722897 	 4.250903 	 -7.186862 
O 	 3.244524 	 1.108768 	 -1.546335 
O 	 7.213026 	 -1.875434 	 -4.138967 
O 	 2.522739 	 -4.767346 	 -5.269704 
O 	 6.648389 	 0.350723 	 -0.061600 
O 	 -2.134885 	 -3.333820 	 1.446982 
O 	 -5.819297 	 7.270754 	 -4.784612 
O 	 2.660823 	 -1.051120 	 -3.582757 
O 	 4.662845 	 5.497570 	 5.277401 
O 	 -2.656683 	 -5.738930 	 -4.374133 
O 	 -1.543394 	 -2.959569 	 -4.183354 
O 	 1.180586 	 2.115645 	 4.475862 
O 	 -1.864125 	 -0.505848 	 4.319750 
O 	 -0.995762 	 6.082745 	 2.584911 
O 	 5.133372 	 -3.681190 	 -4.829233 
O 	 7.047653 	 1.549589 	 5.753086 
O 	 4.690092 	 -2.784837 	 4.534834 
O 	 3.240647 	 3.272537 	 -4.289164 
O 	 7.123878 	 -5.922120 	 -2.059103 
O 	 -3.939830 	 5.008520 	 -6.671237 
O 	 5.323817 	 -5.913768 	 7.283366 
O 	 5.304918 	 6.614182 	 -6.269185 
O 	 4.341556 	 0.816358 	 -4.907457 
O 	 1.962328 	 -3.598407 	 1.184457 
O 	 4.399751 	 -1.298191 	 0.147571 
O 	 -6.465683 	 -5.592613 	 -6.620977 
O 	 0.758796 	 -2.934186 	 -6.926908 
O 	 -0.762381 	 -7.076292 	 -6.064731 
O 	 1.643894 	 0.727416 	 1.562416 
O 	 1.718397 	 -6.896170 	 1.756839 
O 	 -3.752961 	 0.627038 	 1.723213 
O 	 -3.542765 	 -6.461787 	 7.331050 
O 	 1.014412 	 4.321474 	 6.227548 
O 	 -0.082541 	 -5.413350 	 3.822767 
O 	 -5.724066 	 -3.683653 	 -3.103800 
O 	 -1.156860 	 1.351832 	 -3.419305 
O 	 5.020055 	 6.306988 	 -0.519310 
O 	 -1.159815 	 3.239442 	 0.272455 
O 	 -0.658142 	 5.785057 	 -0.677274 
O 	 5.481592 	 1.084484 	 3.065059 
O 	 6.511965 	 4.047584 	 7.353708 
O 	 -4.897457 	 -3.525106 	 2.786876 
O 	 2.246091 	 5.552189 	 0.943833 
O 	 1.178741 	 -1.436965 	 5.666036 
O 	 -5.766567 	 1.280377 	 -4.680949 
O 	 -1.121237 	 -0.319860 	 1.035396 
O 	 0.124761 	 -7.104675 	 -2.411395 
O 	 -2.759141 	 2.962688 	 -1.962448 
O 	 -6.501423 	 -0.081750 	 2.975072 
O 	 4.961870 	 -5.680191 	 -0.132190 
O 	 6.966215 	 -1.151037 	 5.467963 
O 	 -6.740218 	 -4.592105 	 5.208800 
O 	 -6.608316 	 -1.402077 	 -7.184476 
O 	 2.808459 	 4.239970 	 3.476317 
O 	 6.987714 	 -2.775087 	 3.169022 
O 	 -7.402846 	 3.425710 	 -0.582635 
O 	 -0.213452 	 5.702846 	 -4.558820 
O 	 -4.175093 	 -1.895912 	 5.045663 
O 	 -7.086299 	 4.825081 	 1.562663 
O 	 4.138106 	 -5.483152 	 2.631918 
O 	 -7.209167 	 -2.829502 	 -0.341414 
O 	 3.728834 	 -0.996203 	 2.721431 
O 	 0.177536 	 -1.231949 	 -4.850806 
O 	 1.520887 	 -2.394248 	 -1.338336 
O 	 0.622397 	 3.729196 	 -2.751037 
O 	 -0.516855 	 -5.960935 	 0.684557 
O 	 1.673112 	 2.837385 	 -0.137369 
O 	 -0.042233 	 -2.757901 	 3.529902 
O 	 3.770783 	 2.053796 	 5.424394 
O 	 -3.563509 	 -6.642746 	 -0.062483 
O 	 -7.275169 	 -5.596221 	 1.060173 
O 	 6.476407 	 0.846613 	 -3.280313 
O 	 2.276933 	 6.967458 	 5.486923 
O 	 0.789057 	 1.192455 	 -6.039516 
K 	 -4.263670 	 3.832456 	 -4.414024 
