333
conformation = 13
H 	 -4.930869 	 6.341440 	 5.086998 
H 	 -4.464245 	 -7.280264 	 5.681178 
H 	 6.533333 	 3.652537 	 -4.605036 
H 	 -7.286952 	 2.578457 	 -5.171455 
H 	 -2.637612 	 6.543025 	 -2.292023 
H 	 -3.035211 	 7.319986 	 -3.558321 
H 	 -7.334938 	 7.302830 	 3.469116 
H 	 -5.798682 	 7.450931 	 3.506670 
H 	 -3.860384 	 4.871230 	 0.493749 
H 	 -4.376060 	 5.227977 	 -0.884279 
H 	 -6.281875 	 4.458653 	 -1.658173 
H 	 -5.793411 	 5.835312 	 -2.144025 
H 	 -0.468057 	 2.766632 	 3.425780 
H 	 -0.948876 	 4.172170 	 3.144031 
H 	 -4.317011 	 -1.284500 	 -1.569659 
H 	 -2.801305 	 -0.907050 	 -2.062352 
H 	 -0.721207 	 4.564515 	 7.265087 
H 	 -1.194936 	 5.301780 	 -6.327234 
H 	 -2.785191 	 -3.247547 	 -1.940056 
H 	 -1.486143 	 -4.097119 	 -1.674918 
H 	 5.427598 	 7.302842 	 4.671065 
H 	 5.123512 	 -6.388520 	 3.753412 
H 	 -0.303848 	 -1.316811 	 -1.610272 
H 	 -0.917229 	 -0.009480 	 -2.420692 
H 	 4.392083 	 -3.178969 	 -2.479178 
H 	 4.259281 	 -2.687638 	 -0.969373 
H 	 -6.179331 	 -1.744352 	 -0.100692 
H 	 -5.144689 	 -0.639656 	 0.702017 
H 	 3.378635 	 7.279778 	 -6.257386 
H 	 2.210117 	 -6.672207 	 -6.016386 
H 	 -6.529852 	 -6.904549 	 -2.061489 
H 	 -5.216895 	 -7.021420 	 -1.305480 
H 	 5.357809 	 5.345226 	 -3.379068 
H 	 4.415015 	 4.089067 	 -3.478762 
H 	 -2.419652 	 1.577383 	 -5.482467 
H 	 -3.651002 	 0.864567 	 -5.972557 
H 	 0.230187 	 1.420497 	 5.233961 
H 	 -1.132526 	 0.603400 	 5.553851 
H 	 2.096526 	 0.235910 	 -7.299014 
H 	 3.213131 	 0.642210 	 6.635214 
H 	 -0.141927 	 -5.283395 	 5.470737 
H 	 0.195475 	 -4.664638 	 6.907422 
H 	 3.540908 	 -2.044237 	 7.316197 
H 	 3.709928 	 -3.556353 	 7.055770 
H 	 -4.932658 	 3.852995 	 5.278495 
H 	 -6.276226 	 4.270262 	 4.568603 
H 	 -3.372486 	 -6.737184 	 1.963713 
H 	 -3.492376 	 -6.916491 	 3.519714 
H 	 3.852803 	 3.360063 	 0.456476 
H 	 3.411396 	 3.470453 	 1.892282 
H 	 3.331391 	 7.091664 	 -2.445353 
H 	 2.185661 	 -6.819608 	 -2.975309 
H 	 1.028143 	 -4.484130 	 -4.118922 
H 	 0.173252 	 -5.288176 	 -3.117539 
H 	 3.427283 	 -5.766781 	 6.337813 
H 	 2.025166 	 -5.311210 	 5.818083 
H 	 -5.157883 	 -4.113719 	 -6.355826 
H 	 -5.220223 	 -3.685104 	 -4.836983 
H 	 -4.973478 	 1.494223 	 6.316491 
H 	 -5.320035 	 2.018203 	 -7.140487 
H 	 6.354501 	 -7.199067 	 -3.312295 
H 	 7.180619 	 6.724238 	 -4.084438 
H 	 -5.384257 	 0.882278 	 -1.229223 
H 	 -6.099841 	 2.229734 	 -1.085459 
H 	 -6.794092 	 6.286266 	 -7.020875 
H 	 -7.094977 	 5.345929 	 6.759189 
H 	 -4.446574 	 -1.820444 	 -5.464516 
H 	 -3.966540 	 -1.023790 	 -4.099603 
H 	 -3.444004 	 3.343357 	 2.555699 
H 	 -4.901063 	 3.664908 	 2.501237 
H 	 6.539369 	 3.012866 	 4.251450 
H 	 5.906633 	 4.515962 	 4.310000 
H 	 -2.829311 	 2.788056 	 6.521595 
H 	 -2.491416 	 3.088514 	 5.029643 
H 	 2.563959 	 4.090351 	 7.237349 
H 	 3.935849 	 3.456065 	 7.324329 
H 	 2.674722 	 0.748802 	 -0.881017 
H 	 2.781184 	 0.437072 	 -2.343064 
H 	 7.065679 	 -0.665320 	 -4.177625 
H 	 6.203740 	 -1.896279 	 -4.244514 
H 	 1.658047 	 -4.032079 	 -6.225605 
H 	 2.935846 	 -4.291188 	 -5.257459 
H 	 6.495041 	 1.525677 	 -0.078167 
H 	 7.183363 	 0.128651 	 0.133441 
H 	 -2.401895 	 -2.988469 	 0.279208 
H 	 -1.914524 	 -3.960991 	 1.386647 
H 	 -5.679668 	 -7.360424 	 -4.299042 
H 	 -6.199051 	 -7.093972 	 -5.742954 
H 	 2.641769 	 -1.693766 	 -2.763258 
H 	 1.780967 	 -1.255499 	 -3.878987 
H 	 4.735184 	 5.329125 	 6.243360 
H 	 3.582291 	 6.023703 	 5.280350 
H 	 -3.719611 	 -5.274596 	 -4.795196 
H 	 -2.458779 	 -5.904218 	 -5.608238 
H 	 -1.161768 	 -3.655014 	 -3.986874 
H 	 -2.436733 	 -3.674458 	 -4.792151 
H 	 2.578871 	 2.019822 	 5.065778 
H 	 1.222420 	 1.595763 	 3.506876 
H 	 -2.765854 	 -1.234751 	 4.530169 
H 	 -2.837117 	 0.028095 	 3.634131 
H 	 -0.425370 	 6.592946 	 2.452896 
H 	 -1.899282 	 6.483323 	 2.872871 
H 	 5.310089 	 -4.421244 	 -5.239812 
H 	 4.566909 	 -3.061084 	 -5.568392 
H 	 6.550788 	 0.732891 	 5.564969 
H 	 -7.082403 	 1.383352 	 6.167483 
H 	 5.099822 	 -2.256685 	 4.870418 
H 	 3.873943 	 -3.318518 	 5.033482 
H 	 3.121624 	 2.407764 	 -4.634647 
H 	 2.996594 	 3.742066 	 -5.477612 
H 	 -7.519462 	 -5.037318 	 -1.941331 
H 	 6.059022 	 -5.816586 	 -1.371012 
H 	 -4.569058 	 5.415541 	 -7.514824 
H 	 -3.063780 	 4.778898 	 -7.115584 
H 	 5.253135 	 -6.902536 	 7.219646 
H 	 5.601783 	 -5.773377 	 6.218557 
H 	 4.743123 	 5.661604 	 -6.406181 
H 	 5.441496 	 6.777713 	 -5.432815 
H 	 4.001693 	 0.581111 	 -6.053457 
H 	 3.484841 	 -0.044398 	 -4.746630 
H 	 1.117799 	 -3.241430 	 1.578280 
H 	 1.599995 	 -4.707711 	 0.978421 
H 	 4.885306 	 -0.670724 	 0.019918 
H 	 3.981517 	 -1.388346 	 1.026796 
H 	 -6.191569 	 -5.835550 	 7.210201 
H 	 7.329622 	 -5.468818 	 -6.918041 
H 	 0.324966 	 -2.425702 	 -6.369479 
H 	 0.817340 	 -2.489553 	 7.036787 
H 	 -0.490198 	 -6.329636 	 -7.070153 
H 	 -0.402631 	 7.451712 	 -5.980404 
H 	 0.593098 	 0.238463 	 1.133667 
H 	 2.060853 	 0.213808 	 1.698535 
H 	 2.337903 	 -6.385776 	 1.945112 
H 	 1.704620 	 -7.351549 	 0.877194 
H 	 -2.953101 	 0.224681 	 1.143177 
H 	 -4.219513 	 1.206065 	 1.189265 
H 	 -4.156016 	 -5.957591 	 -7.048781 
H 	 -3.256419 	 -7.108190 	 -7.468872 
H 	 0.315559 	 3.676439 	 5.500290 
H 	 0.930958 	 5.144288 	 5.706879 
H 	 -1.171716 	 -5.794999 	 3.421849 
H 	 -0.527237 	 -4.367395 	 3.716204 
H 	 -6.489837 	 -3.000740 	 -3.232183 
H 	 -5.217103 	 -3.220879 	 -2.612638 
H 	 -0.951351 	 2.162014 	 -3.645195 
H 	 -2.214129 	 1.782636 	 -2.979935 
H 	 4.969661 	 5.412467 	 -1.264645 
H 	 4.709309 	 5.913982 	 0.217244 
H 	 -0.392857 	 2.946315 	 0.023460 
H 	 -1.527448 	 3.190232 	 1.029325 
H 	 -0.308897 	 5.478406 	 -0.113650 
H 	 -1.549663 	 5.176371 	 -0.758283 
H 	 6.145884 	 0.772721 	 2.999345 
H 	 5.157630 	 1.868779 	 2.413003 
H 	 6.516416 	 3.100587 	 6.777110 
H 	 6.537593 	 3.879957 	 -6.766620 
H 	 -4.145855 	 -3.398465 	 1.950590 
H 	 -4.686647 	 -4.335082 	 3.045931 
H 	 2.115861 	 5.313460 	 1.772478 
H 	 2.123170 	 4.590274 	 0.480071 
H 	 0.407963 	 -0.534739 	 5.830608 
H 	 1.707089 	 -1.295373 	 5.340765 
H 	 -5.552158 	 0.700463 	 -4.804118 
H 	 -6.550217 	 1.321544 	 -3.674564 
H 	 -1.238918 	 -0.403701 	 0.076698 
H 	 -1.281108 	 -1.168470 	 1.359737 
H 	 -0.352110 	 7.087920 	 -3.157830 
H 	 0.088908 	 7.461154 	 -1.712657 
H 	 -3.856853 	 2.331516 	 -1.954883 
H 	 -2.539504 	 2.750707 	 -1.197311 
H 	 -5.994931 	 0.012645 	 3.102593 
H 	 -6.793868 	 -1.124520 	 2.584772 
H 	 4.329247 	 -5.022843 	 -0.881594 
H 	 4.150755 	 -6.634121 	 -0.883902 
H 	 7.284432 	 -1.198261 	 5.837968 
H 	 7.208233 	 -1.032759 	 4.377475 
H 	 -7.277223 	 -4.298414 	 4.475972 
H 	 -7.148689 	 -5.710185 	 5.110744 
H 	 -6.049942 	 -0.593403 	 -7.328254 
H 	 -6.928385 	 -1.281607 	 -6.328171 
H 	 3.304140 	 4.415358 	 4.059928 
H 	 1.879892 	 3.749354 	 3.872363 
H 	 5.930293 	 -3.349982 	 3.107821 
H 	 7.139618 	 -3.354028 	 2.066950 
H 	 6.391692 	 3.667860 	 -1.386803 
H 	 7.171596 	 4.015256 	 0.013051 
H 	 -0.240411 	 5.005422 	 -4.336007 
H 	 -1.680461 	 5.772098 	 -4.148022 
H 	 -4.321244 	 -2.576953 	 5.448092 
H 	 -4.740097 	 -2.307814 	 4.053541 
H 	 -7.524895 	 4.642858 	 2.359820 
H 	 -6.953470 	 5.701789 	 1.472256 
H 	 4.545487 	 -5.154794 	 1.892257 
H 	 3.763562 	 -4.747410 	 3.109747 
H 	 -7.316264 	 -3.788894 	 -0.202017 
H 	 6.470729 	 -2.956313 	 -0.904424 
H 	 4.149711 	 -0.140835 	 2.857612 
H 	 3.518060 	 -1.577584 	 3.240778 
H 	 -0.823497 	 -1.514816 	 -4.594495 
H 	 -0.032709 	 -0.236711 	 -5.276624 
H 	 0.908464 	 -3.116313 	 -2.089557 
H 	 1.427794 	 -2.778078 	 -0.643180 
H 	 0.464151 	 3.799664 	 -2.039143 
H 	 1.383680 	 3.629908 	 -3.198962 
H 	 -0.042255 	 -6.188739 	 0.956825 
H 	 -0.312364 	 -6.055839 	 -0.601512 
H 	 1.582330 	 2.297811 	 0.357887 
H 	 1.959987 	 2.584909 	 -1.159835 
H 	 -1.055978 	 -2.020531 	 3.121621 
H 	 0.089363 	 -2.088079 	 4.144859 
H 	 4.160097 	 1.749511 	 4.930192 
H 	 0.186745 	 1.323949 	 -7.128966 
H 	 -2.980885 	 -6.241004 	 -0.414026 
H 	 -3.763527 	 7.304452 	 -0.135052 
H 	 -6.894103 	 -5.763180 	 1.451236 
H 	 6.800526 	 -6.207502 	 0.461579 
H 	 6.258571 	 0.655759 	 -2.471713 
H 	 5.380855 	 0.903520 	 -3.781225 
H 	 1.986310 	 7.491235 	 6.228546 
H 	 1.813299 	 -7.271553 	 4.775774 
H 	 1.136607 	 1.940415 	 -5.962273 
O 	 -4.608464 	 7.209738 	 4.797958 
O 	 7.185073 	 3.499071 	 -5.290410 
O 	 -2.936723 	 6.371262 	 -3.242394 
O 	 -6.569903 	 7.307260 	 2.897293 
O 	 -3.651181 	 5.467112 	 -0.270281 
O 	 -5.638977 	 4.847084 	 -2.252012 
O 	 -1.287290 	 3.241143 	 3.210975 
O 	 -3.652714 	 -1.379293 	 -2.317059 
O 	 -1.416890 	 4.550258 	 -6.958590 
O 	 -2.355697 	 -3.869844 	 -1.317500 
O 	 5.880047 	 -6.837382 	 4.222063 
O 	 -0.971886 	 -0.611254 	 -1.622273 
O 	 4.618873 	 -3.397644 	 -1.540880 
O 	 -5.569081 	 -0.945198 	 -0.144683 
O 	 2.412591 	 7.401754 	 -6.464063 
O 	 -5.648929 	 -7.372837 	 -2.110398 
O 	 5.180126 	 4.507453 	 -2.908334 
O 	 -3.119819 	 1.663277 	 -6.139988 
O 	 -0.287764 	 0.828936 	 6.008528 
O 	 2.986022 	 -0.042959 	 7.255330 
O 	 0.274199 	 -5.498143 	 6.369980 
O 	 4.182530 	 -2.745524 	 7.271068 
O 	 -5.325495 	 4.274796 	 4.455252 
O 	 -2.975291 	 -6.467810 	 2.799561 
O 	 4.121223 	 3.090588 	 1.362015 
O 	 3.136730 	 -6.866762 	 -2.680045 
O 	 0.394037 	 -4.328326 	 -3.316377 
O 	 3.023219 	 -5.216770 	 5.627749 
O 	 -4.615639 	 -3.828329 	 -5.577212 
O 	 -5.558246 	 1.336912 	 7.115915 
O 	 6.233054 	 6.860551 	 -3.772103 
O 	 -5.207191 	 1.821818 	 -1.048208 
O 	 -6.485886 	 6.088243 	 6.969291 
O 	 -4.301283 	 -0.924216 	 -5.066078 
O 	 -4.190053 	 3.435242 	 1.878767 
O 	 6.723074 	 4.013084 	 4.026712 
O 	 -3.176906 	 2.770881 	 5.640929 
O 	 3.350768 	 4.086213 	 -7.081123 
O 	 3.149933 	 1.067886 	 -1.722169 
O 	 7.124380 	 -1.640484 	 -4.243554 
O 	 2.047544 	 -4.633846 	 -5.550805 
O 	 6.330215 	 0.570453 	 -0.217165 
O 	 -2.329643 	 -3.053772 	 1.301960 
O 	 -6.106012 	 7.113931 	 -5.059450 
O 	 2.709003 	 -1.147301 	 -3.569035 
O 	 4.417027 	 5.511882 	 5.297199 
O 	 -2.861451 	 -5.769145 	 -4.688910 
O 	 -1.841338 	 -3.030539 	 -4.364711 
O 	 1.041024 	 2.107377 	 4.322130 
O 	 -2.158672 	 -0.524341 	 4.121704 
O 	 -1.142845 	 5.945972 	 2.566041 
O 	 4.860295 	 -3.695191 	 -4.878643 
O 	 7.042280 	 1.625716 	 5.659314 
O 	 4.361111 	 -2.789932 	 4.388535 
O 	 2.913457 	 3.373906 	 -4.556960 
O 	 6.768187 	 -5.812311 	 -2.119782 
O 	 -4.019224 	 4.825595 	 -6.887042 
O 	 5.273321 	 -5.915263 	 7.135458 
O 	 5.125305 	 6.581924 	 -6.379937 
O 	 3.981729 	 0.742329 	 -5.075615 
O 	 1.670601 	 -3.731533 	 0.907014 
O 	 4.216092 	 -1.376008 	 0.038589 
O 	 -6.587219 	 -5.476931 	 -6.876492 
O 	 0.545175 	 -3.099889 	 -7.120480 
O 	 -1.018384 	 -6.925253 	 -6.468418 
O 	 1.341806 	 0.826348 	 1.380930 
O 	 1.488309 	 -6.803275 	 1.679439 
O 	 -3.889985 	 0.336028 	 1.453489 
O 	 -3.842546 	 -6.414470 	 7.075645 
O 	 0.573670 	 4.341413 	 6.169776 
O 	 -0.394114 	 -5.350629 	 3.747714 
O 	 -5.812130 	 -3.689930 	 -3.200896 
O 	 -1.587231 	 1.404087 	 -3.620132 
O 	 4.989349 	 6.198518 	 -0.679199 
O 	 -1.361609 	 3.184003 	 0.082466 
O 	 -0.864388 	 5.865417 	 -0.824269 
O 	 5.251344 	 1.178564 	 3.104747 
O 	 6.325607 	 3.953842 	 7.191047 
O 	 -4.939663 	 -3.531555 	 2.590217 
O 	 2.139246 	 5.478979 	 0.835482 
O 	 0.772472 	 -1.487266 	 5.530468 
O 	 -6.055263 	 1.491275 	 -4.523044 
O 	 -1.162497 	 -0.264896 	 1.030116 
O 	 -0.121546 	 -7.000118 	 -2.572422 
O 	 -3.071614 	 2.921517 	 -2.065884 
O 	 -6.850281 	 -0.165165 	 2.767292 
O 	 4.628886 	 -5.861618 	 -0.466010 
O 	 6.584814 	 -1.163975 	 5.134709 
O 	 -6.786343 	 -4.826414 	 5.130912 
O 	 -6.695412 	 -1.337565 	 -7.306976 
O 	 2.546445 	 4.357202 	 3.413203 
O 	 6.875543 	 -3.084395 	 2.953061 
O 	 7.144458 	 3.400018 	 -0.830333 
O 	 -0.699599 	 5.845903 	 -4.541211 
O 	 -4.392947 	 -1.855329 	 4.820240 
O 	 -7.192338 	 4.723415 	 1.449699 
O 	 4.112597 	 -5.509449 	 2.663965 
O 	 -7.498874 	 -2.890248 	 -0.567626 
O 	 3.473077 	 -0.819763 	 2.602782 
O 	 0.022220 	 -1.163895 	 -4.962400 
O 	 1.132969 	 -2.370341 	 -1.508994 
O 	 0.457451 	 3.699740 	 -3.015444 
O 	 -0.749795 	 -5.900725 	 0.276461 
O 	 1.512946 	 2.992730 	 -0.370917 
O 	 -0.423001 	 -2.631581 	 3.514574 
O 	 3.434470 	 1.986264 	 5.559993 
O 	 -3.860389 	 -6.609515 	 -0.181950 
O 	 -7.511994 	 -5.452605 	 0.752937 
O 	 6.287020 	 0.841705 	 -3.402608 
O 	 1.959943 	 6.917586 	 5.432367 
O 	 0.746438 	 1.121108 	 -6.366306 
K 	 -4.431940 	 3.883318 	 -4.563608 
