333
conformation = 57
H 	 -4.593272 	 6.248090 	 4.962579 
H 	 -4.422119 	 -7.353052 	 5.897423 
H 	 6.803175 	 3.288067 	 -4.245315 
H 	 -6.954880 	 2.688102 	 -5.085680 
H 	 -2.887604 	 6.178179 	 -2.427807 
H 	 -2.853724 	 7.376055 	 -3.532651 
H 	 -7.394680 	 7.365936 	 3.406092 
H 	 -5.918694 	 7.034800 	 3.612498 
H 	 -3.737092 	 4.945972 	 0.771785 
H 	 -4.227334 	 5.134859 	 -0.719228 
H 	 -6.248469 	 4.364442 	 -1.681540 
H 	 -5.650792 	 5.839565 	 -2.044656 
H 	 -0.364547 	 2.738108 	 3.811370 
H 	 -1.232455 	 4.003184 	 3.352167 
H 	 -4.034401 	 -1.097661 	 -1.366614 
H 	 -2.579251 	 -1.284652 	 -1.821865 
H 	 -0.623113 	 4.391943 	 7.487008 
H 	 -0.918319 	 4.812583 	 -5.922574 
H 	 -2.630040 	 -3.003637 	 -1.748197 
H 	 -1.445658 	 -3.891681 	 -1.668439 
H 	 5.479844 	 6.951269 	 4.685995 
H 	 5.382431 	 -6.580199 	 3.787381 
H 	 -0.033154 	 -1.192320 	 -1.709654 
H 	 -0.827828 	 0.071203 	 -2.199395 
H 	 4.538122 	 -3.356858 	 -2.331650 
H 	 4.417292 	 -2.702864 	 -0.908305 
H 	 -5.929372 	 -1.607752 	 0.154665 
H 	 -4.834786 	 -0.571942 	 0.685963 
H 	 3.350697 	 7.236349 	 -6.341610 
H 	 2.369264 	 -6.462887 	 -6.304950 
H 	 -6.396546 	 -6.890633 	 -1.506454 
H 	 -4.852660 	 -6.931447 	 -1.369834 
H 	 5.790333 	 5.147393 	 -3.122935 
H 	 4.449217 	 4.247897 	 -3.181282 
H 	 -2.132087 	 1.932722 	 -5.545493 
H 	 -2.957886 	 0.757025 	 -5.834028 
H 	 0.362319 	 1.343901 	 5.677503 
H 	 -1.045926 	 0.699368 	 5.970092 
H 	 2.503056 	 0.341111 	 -7.051279 
H 	 3.656179 	 0.519314 	 6.835729 
H 	 -0.080694 	 -5.601069 	 5.782746 
H 	 -0.163255 	 -4.917656 	 7.229358 
H 	 3.961786 	 -1.891517 	 -7.313916 
H 	 3.654048 	 -3.364705 	 7.302936 
H 	 -4.764422 	 3.490628 	 5.224160 
H 	 -6.073084 	 4.167033 	 4.777263 
H 	 -3.328783 	 -6.305099 	 2.364895 
H 	 -3.429004 	 -6.933961 	 3.843435 
H 	 3.760469 	 2.609090 	 0.668046 
H 	 3.850460 	 3.400500 	 2.030166 
H 	 3.119931 	 7.069696 	 -1.971355 
H 	 2.217325 	 -6.794586 	 -2.749488 
H 	 1.291467 	 -4.393153 	 -3.844033 
H 	 0.293660 	 -5.192881 	 -2.811036 
H 	 3.748905 	 -5.728514 	 6.378993 
H 	 2.166192 	 -5.432811 	 6.280576 
H 	 -5.370503 	 -4.263655 	 -5.950740 
H 	 -4.931998 	 -4.032363 	 -4.502954 
H 	 -4.610964 	 1.226151 	 6.580115 
H 	 -5.161023 	 1.905347 	 -7.141202 
H 	 6.441725 	 -7.306006 	 -3.029832 
H 	 -7.462656 	 6.858014 	 -4.010315 
H 	 -5.419859 	 0.929709 	 -0.499674 
H 	 -5.811274 	 2.434461 	 -0.596353 
H 	 -6.441367 	 5.945767 	 -6.795950 
H 	 -7.287064 	 5.200614 	 7.044272 
H 	 -4.704339 	 -1.799330 	 -5.381859 
H 	 -4.000237 	 -1.385073 	 -4.061293 
H 	 -2.991743 	 3.205319 	 2.372043 
H 	 -4.375928 	 3.905251 	 2.739112 
H 	 6.958693 	 3.147323 	 4.795401 
H 	 6.134344 	 4.584767 	 4.620994 
H 	 -2.480564 	 2.528613 	 6.549625 
H 	 -2.494323 	 2.808291 	 4.985036 
H 	 2.712756 	 4.465603 	 -7.257913 
H 	 3.716723 	 3.376579 	 7.250580 
H 	 3.699126 	 0.347428 	 -1.016213 
H 	 2.967326 	 0.755106 	 -2.385441 
H 	 6.766545 	 -1.264620 	 -3.428279 
H 	 6.481508 	 -2.586221 	 -4.198796 
H 	 2.091938 	 -4.151850 	 -5.921588 
H 	 3.229597 	 -4.364348 	 -4.920108 
H 	 6.703736 	 1.277910 	 -0.154232 
H 	 -7.429293 	 -0.070638 	 0.114938 
H 	 -2.283920 	 -3.841077 	 0.617222 
H 	 -1.650241 	 -3.951301 	 2.009431 
H 	 -5.515400 	 7.335911 	 -3.884611 
H 	 -5.768580 	 -6.851163 	 -5.226074 
H 	 2.355552 	 -1.545849 	 -2.689867 
H 	 1.843800 	 -1.176647 	 -4.121639 
H 	 4.807200 	 4.834616 	 6.126987 
H 	 3.770539 	 5.968006 	 5.640618 
H 	 -3.203221 	 -5.441480 	 -5.168270 
H 	 -1.889097 	 -6.114865 	 -4.760212 
H 	 -1.081082 	 -3.801123 	 -3.913830 
H 	 -2.404868 	 -3.317926 	 -4.598542 
H 	 2.703012 	 1.912594 	 5.140895 
H 	 1.191030 	 1.571932 	 3.677911 
H 	 -2.896882 	 -0.634814 	 4.706047 
H 	 -2.024103 	 0.126145 	 3.658188 
H 	 -0.250393 	 6.528933 	 2.671710 
H 	 -1.753069 	 6.741943 	 2.575721 
H 	 5.684290 	 -4.416150 	 -4.660754 
H 	 5.141427 	 -3.515969 	 -5.743933 
H 	 6.845709 	 0.485119 	 5.654887 
H 	 -7.006558 	 1.510897 	 6.197955 
H 	 5.321043 	 -2.383233 	 5.110919 
H 	 4.273096 	 -3.609984 	 5.067784 
H 	 3.678750 	 2.437832 	 -4.421943 
H 	 3.188048 	 3.634960 	 -5.144859 
H 	 7.170718 	 -5.059953 	 -2.336180 
H 	 6.294097 	 -5.938667 	 -1.309362 
H 	 -4.604152 	 5.380982 	 -7.288135 
H 	 -3.076426 	 4.867390 	 -6.980311 
H 	 5.418171 	 -6.798274 	 -7.064921 
H 	 5.722515 	 -6.100918 	 6.468654 
H 	 5.409529 	 5.628841 	 -6.499861 
H 	 5.587427 	 6.668387 	 -5.296212 
H 	 4.046687 	 0.387471 	 -5.789052 
H 	 3.769741 	 0.149302 	 -4.258789 
H 	 1.367541 	 -3.220943 	 1.950490 
H 	 1.178379 	 -4.372986 	 1.137077 
H 	 5.143954 	 -0.842834 	 0.209608 
H 	 4.083140 	 -1.459712 	 1.171535 
H 	 -6.547539 	 -5.279021 	 7.407783 
H 	 -7.490626 	 -5.487097 	 -6.400544 
H 	 0.271368 	 -2.458079 	 -6.107759 
H 	 0.573577 	 -2.472713 	 7.167532 
H 	 -0.318267 	 -6.855791 	 -6.859172 
H 	 -0.352093 	 7.122897 	 -5.600472 
H 	 0.633702 	 0.405026 	 1.605711 
H 	 2.108489 	 -0.047939 	 1.948257 
H 	 2.251894 	 -6.427478 	 2.373979 
H 	 1.995357 	 7.073805 	 1.558439 
H 	 -2.917722 	 0.309053 	 1.371205 
H 	 -3.970183 	 1.480042 	 1.519214 
H 	 -4.043574 	 -5.952062 	 -6.833525 
H 	 -2.808988 	 -6.827574 	 -7.179151 
H 	 1.168627 	 3.587391 	 5.655747 
H 	 1.063363 	 5.072158 	 5.725864 
H 	 -1.065691 	 -5.718252 	 3.593429 
H 	 -0.290889 	 -4.430903 	 3.902750 
H 	 -6.337216 	 -2.968947 	 -3.304362 
H 	 -5.109032 	 -3.462845 	 -2.387982 
H 	 -0.414673 	 1.775746 	 -3.287594 
H 	 -1.893122 	 1.836414 	 -2.733892 
H 	 4.952520 	 5.478175 	 -1.105906 
H 	 4.437460 	 5.960786 	 0.323836 
H 	 -0.295613 	 3.087322 	 0.014065 
H 	 -1.230657 	 3.227166 	 1.272658 
H 	 -0.225904 	 5.850344 	 0.188946 
H 	 -1.684277 	 5.723127 	 -0.383737 
H 	 6.326828 	 0.847169 	 2.990697 
H 	 5.128086 	 1.635327 	 2.395086 
H 	 6.518898 	 3.188926 	 6.902642 
H 	 6.564631 	 3.698430 	 -6.579905 
H 	 -4.026397 	 -3.685326 	 2.487812 
H 	 -5.058726 	 -4.386759 	 3.385797 
H 	 2.290394 	 4.918186 	 1.735867 
H 	 1.904297 	 4.982847 	 0.240107 
H 	 0.495929 	 -0.689121 	 5.937434 
H 	 1.973116 	 -1.266408 	 5.912115 
H 	 -5.314753 	 0.453338 	 -4.652041 
H 	 -6.600446 	 0.935541 	 -3.998675 
H 	 -0.968210 	 -0.195029 	 0.099970 
H 	 -1.199996 	 -1.320180 	 1.190826 
H 	 0.177606 	 7.429810 	 -3.299159 
H 	 -0.592789 	 7.117669 	 -1.916285 
H 	 -3.590062 	 2.530097 	 -1.331491 
H 	 -2.134161 	 3.326841 	 -1.314357 
H 	 -5.803799 	 0.086961 	 2.548796 
H 	 -6.819947 	 -1.065163 	 2.789735 
H 	 4.575655 	 -4.925583 	 -0.622920 
H 	 4.263041 	 -6.414971 	 -0.574567 
H 	 7.148840 	 -1.523220 	 6.369023 
H 	 -7.321589 	 -1.059298 	 4.808643 
H 	 -7.095543 	 -3.911207 	 4.725636 
H 	 -6.921354 	 -5.390142 	 4.630309 
H 	 -6.325975 	 -0.510236 	 -7.177345 
H 	 -7.288916 	 -1.561161 	 -6.388559 
H 	 3.335227 	 4.555128 	 4.268927 
H 	 2.303593 	 3.362193 	 3.890659 
H 	 5.918811 	 -2.819442 	 3.434376 
H 	 6.977894 	 -3.679615 	 2.732735 
H 	 6.652562 	 3.673370 	 -1.106171 
H 	 -7.470972 	 4.033104 	 0.180331 
H 	 -0.096074 	 5.044186 	 -3.800281 
H 	 -1.275636 	 5.935674 	 -4.153182 
H 	 -4.522468 	 -2.549484 	 5.754544 
H 	 -4.419857 	 -2.378641 	 4.262084 
H 	 7.383324 	 4.158870 	 2.252903 
H 	 -6.892523 	 5.640572 	 2.012374 
H 	 4.097923 	 -5.567072 	 1.744910 
H 	 4.072208 	 -4.572688 	 2.851209 
H 	 -7.269462 	 -3.746441 	 0.129878 
H 	 6.707442 	 -2.887210 	 -0.762164 
H 	 4.286558 	 -0.305312 	 2.986798 
H 	 3.855503 	 -1.700586 	 3.449698 
H 	 -0.736252 	 -1.664103 	 -4.426363 
H 	 -0.114774 	 -0.396491 	 -5.159045 
H 	 1.108247 	 -3.210322 	 -1.790656 
H 	 1.497402 	 -2.777056 	 -0.338160 
H 	 0.565364 	 4.145951 	 -1.860584 
H 	 1.391406 	 3.513210 	 -3.078599 
H 	 0.216718 	 -6.441427 	 1.194016 
H 	 -0.347994 	 -5.905810 	 -0.232557 
H 	 1.480511 	 2.120618 	 0.555571 
H 	 2.009218 	 2.252948 	 -0.815989 
H 	 -0.946990 	 -2.266760 	 3.744981 
H 	 0.367983 	 -2.542601 	 4.370113 
H 	 4.263127 	 1.976009 	 4.704319 
H 	 0.328051 	 1.145247 	 -6.929276 
H 	 -2.852658 	 -6.135565 	 -0.049597 
H 	 -3.378559 	 7.251622 	 -0.011729 
H 	 -7.109493 	 -6.500364 	 1.482750 
H 	 6.626883 	 -5.812877 	 0.682074 
H 	 5.742025 	 0.910275 	 -2.544910 
H 	 5.816197 	 0.884153 	 -4.075258 
H 	 2.101249 	 7.175422 	 6.503964 
H 	 2.192581 	 -7.180423 	 4.932817 
H 	 0.723194 	 2.083810 	 -5.752154 
O 	 -4.482350 	 7.223556 	 4.965442 
O 	 7.394556 	 3.539513 	 -4.991896 
O 	 -2.693635 	 6.400623 	 -3.357039 
O 	 -6.579171 	 7.200110 	 2.898755 
O 	 -3.620128 	 5.525464 	 -0.028718 
O 	 -5.532555 	 4.845538 	 -2.077769 
O 	 -1.262121 	 3.019458 	 3.455503 
O 	 -3.517072 	 -1.521134 	 -2.110464 
O 	 -1.346562 	 4.487213 	 -6.781112 
O 	 -2.302419 	 -3.786593 	 -1.250596 
O 	 5.925801 	 -7.095317 	 4.431451 
O 	 -0.852387 	 -0.685398 	 -1.510992 
O 	 4.866299 	 -3.426921 	 -1.428837 
O 	 -5.423879 	 -0.766620 	 -0.107282 
O 	 2.402666 	 -7.403022 	 -6.508549 
O 	 -5.601006 	 -7.300373 	 -1.914869 
O 	 5.324035 	 4.381104 	 -2.660580 
O 	 -2.923835 	 1.703013 	 -6.037229 
O 	 -0.169261 	 0.730244 	 6.360097 
O 	 3.336453 	 -0.088061 	 7.515038 
O 	 0.260991 	 -5.658392 	 6.731498 
O 	 4.295047 	 -2.787268 	 -7.236448 
O 	 -5.106136 	 4.237122 	 4.700408 
O 	 -2.801084 	 -6.607775 	 3.109906 
O 	 4.376523 	 3.011976 	 1.322088 
O 	 3.150765 	 -6.981328 	 -2.521103 
O 	 0.550371 	 -4.333636 	 -3.186592 
O 	 3.041600 	 -5.348727 	 5.807138 
O 	 -4.558476 	 -4.029774 	 -5.423380 
O 	 -5.486699 	 1.356874 	 7.035244 
O 	 6.508054 	 6.827616 	 -3.610006 
O 	 -5.108929 	 1.776904 	 -0.835541 
O 	 -6.616347 	 5.911665 	 7.137438 
O 	 -4.269851 	 -1.007787 	 -4.984376 
O 	 -3.881477 	 3.490198 	 2.013924 
O 	 6.860549 	 4.012087 	 4.229344 
O 	 -3.040132 	 2.768498 	 5.796832 
O 	 3.632988 	 4.184501 	 -7.105402 
O 	 3.163039 	 1.068988 	 -1.506016 
O 	 7.138110 	 -1.889065 	 -4.086797 
O 	 2.391725 	 -4.806743 	 -5.251783 
O 	 6.539236 	 0.329422 	 -0.014062 
O 	 -2.213906 	 -3.328732 	 1.491373 
O 	 -5.917891 	 7.208872 	 -4.762783 
O 	 2.619163 	 -1.116140 	 -3.516078 
O 	 4.576659 	 5.442894 	 5.348148 
O 	 -2.759032 	 -5.776201 	 -4.353620 
O 	 -1.626392 	 -3.018298 	 -4.142502 
O 	 1.102363 	 2.061559 	 4.520501 
O 	 -1.968592 	 -0.559963 	 4.354713 
O 	 -1.078166 	 6.014332 	 2.656796 
O 	 5.032831 	 -3.725486 	 -4.772149 
O 	 7.010830 	 1.498658 	 5.806779 
O 	 4.592518 	 -2.829693 	 4.573719 
O 	 3.138927 	 3.230675 	 -4.269031 
O 	 7.027680 	 -5.964286 	 -1.997889 
O 	 -3.999131 	 4.932975 	 -6.625689 
O 	 5.239227 	 -5.966945 	 7.325181 
O 	 5.230624 	 6.572674 	 -6.233404 
O 	 4.235304 	 0.764739 	 -4.866483 
O 	 1.879742 	 -3.663219 	 1.194877 
O 	 4.314724 	 -1.372525 	 0.201328 
O 	 -6.518787 	 -5.631537 	 -6.578661 
O 	 0.676095 	 -2.995276 	 -6.889717 
O 	 -0.853299 	 -7.102348 	 -6.054839 
O 	 1.552739 	 0.698304 	 1.590044 
O 	 1.627838 	 -6.923068 	 1.805775 
O 	 -3.836888 	 0.539735 	 1.739703 
O 	 -3.647397 	 -6.505404 	 7.353789 
O 	 0.880084 	 4.269386 	 6.293390 
O 	 -0.182880 	 -5.443362 	 3.868153 
O 	 -5.795967 	 -3.729931 	 -3.059549 
O 	 -1.289430 	 1.310451 	 -3.384719 
O 	 4.968408 	 6.240728 	 -0.481322 
O 	 -1.246780 	 3.192781 	 0.302087 
O 	 -0.748029 	 5.747231 	 -0.628418 
O 	 5.397470 	 1.043480 	 3.144067 
O 	 6.444949 	 3.996841 	 7.419036 
O 	 -4.971391 	 -3.567314 	 2.823809 
O 	 2.174921 	 5.498602 	 0.989543 
O 	 1.048788 	 -1.476005 	 5.700915 
O 	 -5.865583 	 1.270997 	 -4.592974 
O 	 -1.176945 	 -0.360790 	 1.089506 
O 	 0.021083 	 -7.144995 	 -2.362998 
O 	 -2.862042 	 2.896431 	 -1.902784 
O 	 -6.606978 	 -0.135629 	 3.012617 
O 	 4.866899 	 -5.761841 	 -0.115282 
O 	 6.869716 	 -1.197082 	 5.479592 
O 	 -6.806039 	 -4.668024 	 5.269604 
O 	 -6.673807 	 -1.436795 	 -7.141323 
O 	 2.708002 	 4.213178 	 3.547489 
O 	 6.894309 	 -2.854296 	 3.222012 
O 	 7.396060 	 3.383369 	 -0.542689 
O 	 -0.334256 	 5.671421 	 -4.517043 
O 	 -4.250401 	 -1.942967 	 5.078808 
O 	 -7.156679 	 4.764035 	 1.613107 
O 	 4.077977 	 -5.532932 	 2.709410 
O 	 -7.307213 	 -2.878049 	 -0.316654 
O 	 3.638901 	 -1.017811 	 2.774633 
O 	 0.083107 	 -1.270701 	 -4.797426 
O 	 1.410432 	 -2.440701 	 -1.291468 
O 	 0.541838 	 3.675702 	 -2.710913 
O 	 -0.602123 	 -6.011733 	 0.690952 
O 	 1.594822 	 2.816785 	 -0.108275 
O 	 -0.158657 	 -2.782593 	 3.602356 
O 	 3.667906 	 1.996879 	 5.498401 
O 	 -3.667863 	 -6.699788 	 -0.018367 
O 	 -7.356737 	 -5.630835 	 1.075408 
O 	 6.384795 	 0.800177 	 -3.234074 
O 	 2.182817 	 6.941227 	 5.544672 
O 	 0.719750 	 1.128831 	 -6.016626 
K 	 -4.345420 	 3.791864 	 -4.378853 
