333
conformation = 76
H 	 -4.500142 	 6.270745 	 4.967552 
H 	 -4.146500 	 7.520461 	 5.761924 
H 	 6.834598 	 3.603722 	 -4.224602 
H 	 -7.056722 	 2.698817 	 -5.106270 
H 	 -2.999244 	 6.352972 	 -2.697525 
H 	 -2.876807 	 7.443236 	 -3.747661 
H 	 7.369115 	 7.229379 	 3.093320 
H 	 -6.062597 	 7.247406 	 3.523460 
H 	 -3.696781 	 4.885091 	 0.603812 
H 	 -4.324940 	 5.412277 	 -0.719082 
H 	 -6.147994 	 4.505959 	 -1.601969 
H 	 -5.751590 	 5.884193 	 -2.093434 
H 	 -0.341784 	 2.810321 	 3.627297 
H 	 -1.238951 	 4.022477 	 3.350494 
H 	 -4.112442 	 -0.943358 	 -1.660933 
H 	 -2.584690 	 -1.103936 	 -2.166880 
H 	 -0.642645 	 4.292811 	 7.293156 
H 	 -0.818473 	 4.624294 	 -6.077242 
H 	 -2.925384 	 -3.063843 	 -1.686662 
H 	 -1.519150 	 -3.768778 	 -2.003862 
H 	 5.612290 	 6.901208 	 4.557685 
H 	 5.284609 	 -6.785910 	 3.734555 
H 	 -0.060367 	 -1.253322 	 -1.746974 
H 	 -0.876754 	 0.053746 	 -2.435789 
H 	 4.533515 	 -3.334244 	 -2.416243 
H 	 4.489492 	 -2.665797 	 -1.003975 
H 	 -5.756403 	 -1.561526 	 -0.408412 
H 	 -4.956613 	 -0.542733 	 0.669130 
H 	 3.230316 	 7.319272 	 -6.345898 
H 	 2.363966 	 -6.367316 	 -6.461371 
H 	 -6.406701 	 -6.850727 	 -1.753544 
H 	 -4.899662 	 -7.035834 	 -1.295392 
H 	 5.853191 	 5.168599 	 -3.135904 
H 	 4.601267 	 4.226953 	 -3.316784 
H 	 -1.999998 	 2.056453 	 -5.764509 
H 	 -3.039528 	 0.908445 	 -5.743638 
H 	 0.379259 	 1.293176 	 5.584268 
H 	 -0.990544 	 0.697288 	 5.881100 
H 	 2.622563 	 0.379503 	 -7.130245 
H 	 3.783503 	 0.618522 	 6.813182 
H 	 -0.065741 	 -5.591500 	 5.717074 
H 	 -0.131623 	 -4.828703 	 7.116593 
H 	 4.081172 	 -1.808303 	 -7.183637 
H 	 3.623261 	 -3.148761 	 7.157185 
H 	 -4.586738 	 3.728233 	 5.165771 
H 	 -6.005590 	 4.291152 	 4.704617 
H 	 -3.214117 	 -6.025917 	 2.403111 
H 	 -3.433729 	 -6.959977 	 3.672269 
H 	 3.693843 	 2.564681 	 0.834310 
H 	 4.083921 	 3.418017 	 1.929829 
H 	 3.322645 	 7.185820 	 -2.000165 
H 	 2.199251 	 -6.800390 	 -2.470112 
H 	 1.215923 	 -4.673576 	 -3.996097 
H 	 0.375579 	 -5.190682 	 -2.853102 
H 	 3.756769 	 -5.790326 	 6.136693 
H 	 2.256629 	 -5.354395 	 6.321199 
H 	 -5.315106 	 -4.499356 	 -5.951203 
H 	 -4.826650 	 -3.954847 	 -4.625704 
H 	 -4.665766 	 1.374006 	 6.266204 
H 	 -5.079599 	 1.839270 	 -7.209709 
H 	 6.590824 	 -7.289031 	 -3.214191 
H 	 -7.386210 	 6.949853 	 -4.163560 
H 	 -5.468289 	 1.008471 	 -0.660073 
H 	 -5.891559 	 2.521874 	 -0.838990 
H 	 -6.498243 	 6.226029 	 -6.927185 
H 	 -7.318831 	 5.225302 	 7.095529 
H 	 -4.529196 	 -1.793361 	 -5.532768 
H 	 -3.908230 	 -1.126210 	 -4.186063 
H 	 -2.939758 	 3.385083 	 2.392085 
H 	 -4.310562 	 3.941649 	 2.703576 
H 	 6.764541 	 3.152828 	 4.545627 
H 	 6.342036 	 4.634712 	 4.655070 
H 	 -2.462081 	 2.927433 	 6.542674 
H 	 -2.348425 	 2.586067 	 4.963791 
H 	 2.799418 	 4.656811 	 7.423092 
H 	 3.645024 	 3.538145 	 7.000571 
H 	 3.702130 	 0.324049 	 -1.244833 
H 	 2.874343 	 0.741204 	 -2.481093 
H 	 6.667122 	 -1.306749 	 -3.574113 
H 	 6.528966 	 -2.683344 	 -4.289456 
H 	 1.979737 	 -4.300546 	 -5.925942 
H 	 3.335343 	 -4.237583 	 -5.139243 
H 	 6.712449 	 1.255942 	 -0.305373 
H 	 -7.379886 	 0.003341 	 -0.200327 
H 	 -2.257823 	 -3.809291 	 0.504174 
H 	 -1.391813 	 -3.721767 	 1.805861 
H 	 -5.531461 	 7.407267 	 -3.863713 
H 	 -5.591205 	 -6.810718 	 -5.281040 
H 	 2.262463 	 -1.531988 	 -2.837662 
H 	 1.764504 	 -1.120333 	 -4.202037 
H 	 4.761377 	 4.940814 	 5.977552 
H 	 3.869602 	 6.134423 	 5.475930 
H 	 -3.216876 	 -5.442338 	 -5.143379 
H 	 -1.774536 	 -6.078231 	 -4.729179 
H 	 -1.111930 	 -3.761829 	 -3.966297 
H 	 -2.341699 	 -3.273205 	 -4.770591 
H 	 2.776028 	 2.044576 	 5.016415 
H 	 1.324851 	 1.364451 	 3.861575 
H 	 -2.802403 	 -0.470649 	 4.731074 
H 	 -1.934427 	 0.093699 	 3.517641 
H 	 -0.156778 	 6.422618 	 2.764846 
H 	 -1.638793 	 6.890380 	 2.744142 
H 	 5.708511 	 -4.494101 	 -4.686719 
H 	 4.917671 	 -3.554882 	 -5.856884 
H 	 6.895736 	 0.585154 	 5.586364 
H 	 -6.967262 	 1.710965 	 5.707179 
H 	 5.260656 	 -2.340330 	 5.205106 
H 	 4.374574 	 -3.683489 	 4.922156 
H 	 3.646157 	 2.381934 	 -4.383694 
H 	 3.104063 	 3.568969 	 -5.287990 
H 	 7.326220 	 -5.058316 	 -2.439858 
H 	 6.448941 	 -5.725045 	 -1.322763 
H 	 -4.588864 	 5.202232 	 7.431133 
H 	 -3.106507 	 5.217309 	 -7.023074 
H 	 5.231499 	 -6.749698 	 -7.100365 
H 	 5.739503 	 -6.277792 	 6.437206 
H 	 5.818202 	 6.022376 	 -6.801308 
H 	 5.704016 	 6.748524 	 -5.387472 
H 	 4.270748 	 0.553798 	 -5.884506 
H 	 3.800164 	 0.064255 	 -4.494448 
H 	 1.493805 	 -2.933901 	 1.793067 
H 	 1.312926 	 -4.307425 	 0.946872 
H 	 5.252832 	 -0.956324 	 0.147616 
H 	 4.067123 	 -1.347393 	 1.043785 
H 	 -6.465829 	 -5.231413 	 7.324846 
H 	 7.393134 	 -5.584947 	 -6.418665 
H 	 0.626532 	 -2.220126 	 -6.231655 
H 	 0.875132 	 -2.355657 	 7.150642 
H 	 -0.353086 	 -6.572779 	 -6.739095 
H 	 -0.286659 	 6.943698 	 -6.083196 
H 	 0.700487 	 0.269464 	 1.482752 
H 	 2.141421 	 0.122702 	 2.125025 
H 	 2.210711 	 -6.401491 	 2.356901 
H 	 2.159824 	 7.191699 	 1.404006 
H 	 -2.976767 	 0.366853 	 1.248271 
H 	 -4.028330 	 1.614531 	 1.418332 
H 	 -4.134804 	 -6.006942 	 -6.931358 
H 	 -2.706864 	 -6.655940 	 -7.142083 
H 	 1.228173 	 3.596290 	 5.521037 
H 	 1.176513 	 5.223631 	 5.762464 
H 	 -1.014953 	 -5.761777 	 3.508011 
H 	 -0.124986 	 -4.459898 	 3.841927 
H 	 -6.262216 	 -2.861344 	 -3.378026 
H 	 -5.426339 	 -3.404990 	 -2.271985 
H 	 -0.404674 	 1.994452 	 -3.377393 
H 	 -1.838864 	 1.877495 	 -2.914592 
H 	 4.981950 	 5.665234 	 -1.330073 
H 	 4.291213 	 5.873879 	 0.061678 
H 	 -0.339168 	 3.109007 	 -0.217571 
H 	 -0.931154 	 3.134982 	 1.215238 
H 	 -0.375321 	 6.305244 	 0.036043 
H 	 -1.633089 	 5.656594 	 -0.427726 
H 	 6.346223 	 0.832652 	 2.929351 
H 	 5.316869 	 1.814524 	 2.304557 
H 	 6.849591 	 3.198472 	 6.981602 
H 	 6.564230 	 3.970649 	 -6.660003 
H 	 -4.015680 	 -3.599828 	 2.475414 
H 	 -5.310980 	 -4.378896 	 3.136613 
H 	 2.408891 	 4.859729 	 1.574670 
H 	 1.850618 	 4.974237 	 0.166273 
H 	 0.693276 	 -0.604320 	 5.804732 
H 	 2.117090 	 -1.165519 	 5.772732 
H 	 -5.185984 	 0.451759 	 -4.887719 
H 	 -6.574786 	 0.921050 	 -4.293960 
H 	 -1.034287 	 -0.208271 	 0.007536 
H 	 -1.122836 	 -1.301911 	 1.041559 
H 	 0.090467 	 -7.299097 	 -3.458570 
H 	 -0.385616 	 7.001041 	 -2.105591 
H 	 -3.309073 	 2.335709 	 -1.472178 
H 	 -2.323457 	 3.480493 	 -1.294677 
H 	 -5.689053 	 0.056902 	 2.379681 
H 	 -6.906553 	 -0.907267 	 2.580274 
H 	 4.777643 	 -4.821419 	 -0.673804 
H 	 4.557898 	 -6.444553 	 -0.536348 
H 	 -7.382156 	 -1.308402 	 6.261282 
H 	 -7.292018 	 -1.389485 	 4.793955 
H 	 -7.084189 	 -3.642132 	 4.856374 
H 	 -6.989496 	 -5.169579 	 4.399277 
H 	 -6.377830 	 -0.478015 	 -7.177049 
H 	 -6.992303 	 -1.500313 	 -6.314174 
H 	 3.262995 	 4.390418 	 4.230857 
H 	 2.088103 	 3.515392 	 3.594395 
H 	 6.039280 	 -2.662554 	 3.482395 
H 	 7.002253 	 -3.597475 	 2.609863 
H 	 6.615455 	 3.547391 	 -1.078911 
H 	 -7.418721 	 4.045760 	 0.133201 
H 	 0.259574 	 4.971207 	 -4.077229 
H 	 -1.224391 	 5.691803 	 -4.301095 
H 	 -4.517293 	 -2.352494 	 5.847783 
H 	 -4.415077 	 -2.564599 	 4.320036 
H 	 7.406916 	 4.311512 	 2.313552 
H 	 -6.746257 	 5.578008 	 2.008790 
H 	 4.050153 	 -5.651034 	 1.575011 
H 	 4.129232 	 -4.492986 	 2.594438 
H 	 -7.090695 	 -3.727002 	 -0.040212 
H 	 6.821651 	 -2.851097 	 -0.853765 
H 	 4.386063 	 -0.355127 	 2.877285 
H 	 3.650632 	 -1.708510 	 3.354781 
H 	 -0.580827 	 -1.716830 	 -4.401601 
H 	 -0.110873 	 -0.337168 	 -5.094582 
H 	 1.253079 	 -3.235005 	 -1.792603 
H 	 1.782972 	 -2.569876 	 -0.473442 
H 	 0.609926 	 4.296366 	 -2.019799 
H 	 1.532971 	 3.631520 	 -2.970266 
H 	 0.266176 	 -6.387891 	 1.110825 
H 	 -0.348122 	 -6.001465 	 -0.261297 
H 	 1.621448 	 2.202916 	 0.636578 
H 	 2.188205 	 2.303797 	 -0.794710 
H 	 -0.792505 	 -2.178882 	 3.674374 
H 	 0.634813 	 -2.375886 	 4.035043 
H 	 4.283076 	 1.533957 	 4.715988 
H 	 0.283427 	 1.029408 	 -6.938652 
H 	 -2.682137 	 -6.274432 	 -0.174399 
H 	 -3.495127 	 7.320294 	 0.155035 
H 	 -6.871842 	 -6.411878 	 1.351053 
H 	 6.626278 	 -5.786322 	 0.867871 
H 	 5.806464 	 1.168495 	 -2.622833 
H 	 5.892711 	 0.856940 	 -4.130576 
H 	 2.283462 	 7.193778 	 6.368506 
H 	 2.473292 	 -7.045429 	 5.149351 
H 	 0.535695 	 2.138605 	 -5.900150 
O 	 -4.453043 	 7.255909 	 4.839309 
O 	 -7.423370 	 3.587659 	 -5.005065 
O 	 -2.639848 	 6.470896 	 -3.571095 
O 	 -6.622978 	 7.226950 	 2.746438 
O 	 -3.586632 	 5.573779 	 -0.108673 
O 	 -5.488300 	 4.914865 	 -2.170773 
O 	 -1.275643 	 3.041208 	 3.389653 
O 	 -3.481275 	 -1.500885 	 -2.193116 
O 	 -1.304954 	 4.492563 	 -6.889515 
O 	 -2.260094 	 -3.734471 	 -1.370623 
O 	 5.962949 	 -7.103954 	 4.350029 
O 	 -0.812443 	 -0.629175 	 -1.660434 
O 	 4.953277 	 -3.343446 	 -1.557799 
O 	 -5.360333 	 -0.663733 	 -0.236903 
O 	 2.381492 	 -7.318741 	 -6.721540 
O 	 -5.552656 	 -7.204801 	 -2.013450 
O 	 5.398554 	 4.393433 	 -2.728302 
O 	 -2.835972 	 1.761939 	 -6.165804 
O 	 -0.155458 	 0.810327 	 6.311144 
O 	 3.452559 	 -0.020043 	 7.440073 
O 	 0.256546 	 -5.652680 	 6.683576 
O 	 4.342208 	 -2.746915 	 -7.244171 
O 	 -5.019687 	 4.309963 	 4.592970 
O 	 -2.748569 	 -6.593794 	 3.053010 
O 	 4.476234 	 3.028750 	 1.142601 
O 	 3.149340 	 -6.964515 	 -2.623682 
O 	 0.612779 	 -4.301579 	 -3.278811 
O 	 3.036287 	 -5.233922 	 5.717780 
O 	 -4.559115 	 -4.014565 	 -5.547974 
O 	 -5.407914 	 1.412240 	 6.872941 
O 	 6.575628 	 6.832991 	 -3.767760 
O 	 -5.096980 	 1.870388 	 -0.915722 
O 	 -6.637279 	 5.937143 	 7.052206 
O 	 -4.274838 	 -0.953914 	 -5.109636 
O 	 -3.758004 	 3.585127 	 1.918027 
O 	 6.931022 	 4.051313 	 4.154399 
O 	 -2.996402 	 2.785269 	 5.688970 
O 	 3.671677 	 4.275034 	 -7.271866 
O 	 3.194468 	 1.116370 	 -1.597287 
O 	 7.148629 	 -1.924233 	 -4.187545 
O 	 2.511212 	 -4.774224 	 -5.286048 
O 	 6.622290 	 0.326048 	 -0.114591 
O 	 -2.202544 	 -3.385813 	 1.425103 
O 	 -5.841049 	 7.294208 	 -4.787025 
O 	 2.552791 	 -1.028296 	 -3.657664 
O 	 4.605766 	 5.506771 	 5.211203 
O 	 -2.683006 	 -5.754622 	 -4.368596 
O 	 -1.611471 	 -2.926471 	 -4.218372 
O 	 1.123713 	 2.122323 	 4.427512 
O 	 -1.884413 	 -0.479397 	 4.285234 
O 	 -1.045949 	 6.109309 	 2.502322 
O 	 5.119503 	 -3.692779 	 -4.888865 
O 	 6.939311 	 1.590032 	 5.702861 
O 	 4.651071 	 -2.793548 	 4.509617 
O 	 3.216092 	 3.270523 	 -4.307402 
O 	 7.075743 	 -5.919628 	 -2.129983 
O 	 -4.027270 	 5.052416 	 -6.733266 
O 	 5.281488 	 -5.905838 	 7.244433 
O 	 5.242910 	 6.610428 	 -6.294185 
O 	 4.320401 	 0.821820 	 -4.939830 
O 	 1.903200 	 -3.568892 	 1.184096 
O 	 4.349263 	 -1.266701 	 0.068054 
O 	 -6.563410 	 -5.582487 	 -6.679335 
O 	 0.708868 	 -2.923703 	 -6.960433 
O 	 -0.808885 	 -7.095320 	 -6.059076 
O 	 1.589221 	 0.711472 	 1.547143 
O 	 1.683296 	 -6.917406 	 1.712150 
O 	 -3.804292 	 0.688080 	 1.710003 
O 	 -3.560532 	 -6.467350 	 7.304356 
O 	 1.030015 	 4.330984 	 6.167327 
O 	 -0.127289 	 -5.437372 	 3.786154 
O 	 -5.802699 	 -3.688057 	 -3.160614 
O 	 -1.145410 	 1.338384 	 -3.455671 
O 	 4.916123 	 6.331549 	 -0.555951 
O 	 -1.204469 	 3.230893 	 0.255410 
O 	 -0.706917 	 5.789580 	 -0.721116 
O 	 5.436459 	 1.078265 	 2.974088 
O 	 6.436976 	 4.029842 	 7.292737 
O 	 -4.966899 	 -3.506673 	 2.749844 
O 	 2.183147 	 5.558462 	 0.896522 
O 	 1.187302 	 -1.444377 	 5.634576 
O 	 -5.802826 	 1.234161 	 -4.781924 
O 	 -1.203447 	 -0.329619 	 0.985626 
O 	 0.099725 	 -7.102853 	 -2.466267 
O 	 -2.791603 	 2.983012 	 -2.022875 
O 	 -6.535391 	 -0.071415 	 2.941558 
O 	 4.922882 	 -5.639209 	 -0.133090 
O 	 6.921514 	 -1.154665 	 5.465821 
O 	 -6.811187 	 -4.548084 	 5.147509 
O 	 -6.685453 	 -1.417298 	 -7.211097 
O 	 2.771232 	 4.210874 	 3.378135 
O 	 6.949513 	 -2.745242 	 3.102582 
O 	 -7.433860 	 3.425921 	 -0.622919 
O 	 -0.208744 	 5.674815 	 -4.595624 
O 	 -4.245222 	 -1.908918 	 5.013413 
O 	 -7.154977 	 4.839154 	 1.525633 
O 	 4.054874 	 -5.491304 	 2.547510 
O 	 -7.233350 	 -2.825846 	 -0.356103 
O 	 3.681483 	 -1.024573 	 2.674240 
O 	 0.136441 	 -1.220494 	 -4.907799 
O 	 1.497889 	 -2.391181 	 -1.399069 
O 	 0.572565 	 3.739980 	 -2.805135 
O 	 -0.575868 	 -5.941664 	 0.671570 
O 	 1.613511 	 2.801651 	 -0.154099 
O 	 -0.053629 	 -2.765169 	 3.464333 
O 	 3.749167 	 2.059513 	 5.342200 
O 	 -3.587874 	 -6.628056 	 -0.104305 
O 	 -7.336845 	 -5.608348 	 1.054356 
O 	 6.423819 	 0.850430 	 -3.322512 
O 	 2.241500 	 6.933457 	 5.437734 
O 	 0.717032 	 1.224544 	 -6.068888 
K 	 -4.319491 	 3.826392 	 -4.442187 
