333
conformation = 12
H 	 -4.961945 	 6.337308 	 5.072316 
H 	 -4.438245 	 -7.280279 	 5.664970 
H 	 6.537752 	 3.671289 	 -4.619749 
H 	 -7.320742 	 2.560117 	 -5.155915 
H 	 -2.633296 	 6.555434 	 -2.287276 
H 	 -3.014016 	 7.309318 	 -3.565646 
H 	 -7.354071 	 7.303023 	 3.464291 
H 	 -5.802940 	 7.453031 	 3.537607 
H 	 -3.862551 	 4.867215 	 0.492989 
H 	 -4.376803 	 5.238814 	 -0.903664 
H 	 -6.297362 	 4.473092 	 -1.634285 
H 	 -5.806481 	 5.828494 	 -2.150326 
H 	 -0.461916 	 2.778811 	 3.400056 
H 	 -0.953778 	 4.182042 	 3.131149 
H 	 -4.326647 	 -1.262566 	 -1.579580 
H 	 -2.780680 	 -0.919881 	 -2.070665 
H 	 -0.705519 	 4.568065 	 7.279544 
H 	 -1.158770 	 5.308811 	 -6.318423 
H 	 -2.788376 	 -3.258555 	 -1.927241 
H 	 -1.476132 	 -4.117300 	 -1.671166 
H 	 5.429922 	 7.304617 	 4.668024 
H 	 5.117663 	 -6.399812 	 3.746117 
H 	 -0.316214 	 -1.331039 	 -1.609215 
H 	 -0.911116 	 -0.002869 	 -2.417003 
H 	 4.400853 	 -3.183518 	 -2.490208 
H 	 4.254592 	 -2.695021 	 -0.973777 
H 	 -6.172468 	 -1.746943 	 -0.129457 
H 	 -5.141823 	 -0.660244 	 0.716520 
H 	 3.386444 	 7.280172 	 -6.237334 
H 	 2.184991 	 -6.664432 	 -6.025988 
H 	 -6.557742 	 -6.922168 	 -2.049857 
H 	 -5.223504 	 -7.024829 	 -1.291711 
H 	 5.384131 	 5.361684 	 -3.385672 
H 	 4.414823 	 4.082746 	 -3.467596 
H 	 -2.413580 	 1.573093 	 -5.473485 
H 	 -3.683885 	 0.870621 	 -5.981507 
H 	 0.231807 	 1.426262 	 5.251096 
H 	 -1.153144 	 0.625127 	 5.521131 
H 	 2.098558 	 0.249837 	 -7.292320 
H 	 3.204798 	 0.641105 	 6.648009 
H 	 -0.152252 	 -5.286466 	 5.468051 
H 	 0.184232 	 -4.678267 	 6.915504 
H 	 3.540033 	 -2.046491 	 7.309028 
H 	 3.688497 	 -3.575641 	 7.039290 
H 	 -4.901476 	 3.851324 	 5.288204 
H 	 -6.288645 	 4.281360 	 4.561333 
H 	 -3.379899 	 -6.721526 	 1.945932 
H 	 -3.515786 	 -6.928565 	 3.506271 
H 	 3.860882 	 3.371926 	 0.469839 
H 	 3.387529 	 3.481695 	 1.911650 
H 	 3.336343 	 7.109402 	 -2.468673 
H 	 2.180778 	 -6.838267 	 -2.948204 
H 	 1.017856 	 -4.508802 	 -4.103314 
H 	 0.176085 	 -5.272207 	 -3.120094 
H 	 3.430302 	 -5.762849 	 6.317333 
H 	 2.034213 	 -5.332324 	 5.825914 
H 	 -5.152782 	 -4.114303 	 -6.350521 
H 	 -5.220361 	 -3.684400 	 -4.840087 
H 	 -4.990376 	 1.493212 	 6.320242 
H 	 -5.316622 	 2.017153 	 -7.116776 
H 	 6.340222 	 -7.172652 	 -3.308561 
H 	 7.172302 	 6.699572 	 -4.078622 
H 	 -5.378898 	 0.874944 	 -1.229860 
H 	 -6.074332 	 2.223761 	 -1.102563 
H 	 -6.798452 	 6.290190 	 -7.029324 
H 	 -7.093064 	 5.358001 	 6.765162 
H 	 -4.406851 	 -1.824781 	 -5.457816 
H 	 -3.955537 	 -1.012035 	 -4.108287 
H 	 -3.466621 	 3.354975 	 2.564668 
H 	 -4.899589 	 3.676014 	 2.475327 
H 	 6.534595 	 3.004306 	 4.255184 
H 	 5.917377 	 4.499199 	 4.332300 
H 	 -2.825146 	 2.817408 	 6.518136 
H 	 -2.486865 	 3.067466 	 5.046037 
H 	 2.547384 	 4.081374 	 7.240687 
H 	 3.959402 	 3.465905 	 7.331154 
H 	 2.685459 	 0.755084 	 -0.904668 
H 	 2.790664 	 0.429912 	 -2.340413 
H 	 7.041917 	 -0.669341 	 -4.170775 
H 	 6.207068 	 -1.894105 	 -4.236912 
H 	 1.624239 	 -4.048812 	 -6.258874 
H 	 2.905629 	 -4.273610 	 -5.252655 
H 	 6.489354 	 1.559095 	 -0.080859 
H 	 7.173279 	 0.145155 	 0.122207 
H 	 -2.432217 	 -2.961237 	 0.278270 
H 	 -1.904256 	 -3.951276 	 1.398380 
H 	 -5.675543 	 -7.365674 	 -4.292508 
H 	 -6.195412 	 -7.082834 	 -5.738823 
H 	 2.644261 	 -1.704027 	 -2.781617 
H 	 1.776897 	 -1.270768 	 -3.876975 
H 	 4.727143 	 5.324255 	 6.242569 
H 	 3.570396 	 6.038584 	 5.322918 
H 	 -3.716780 	 -5.287435 	 -4.783312 
H 	 -2.449449 	 -5.912180 	 -5.578746 
H 	 -1.174550 	 -3.627454 	 -3.962540 
H 	 -2.439082 	 -3.678713 	 -4.817808 
H 	 2.576388 	 2.023080 	 5.070439 
H 	 1.230894 	 1.583021 	 3.513150 
H 	 -2.751070 	 -1.194616 	 4.548548 
H 	 -2.858770 	 0.019349 	 3.657175 
H 	 -0.417273 	 6.584132 	 2.454023 
H 	 -1.883286 	 6.467849 	 2.898195 
H 	 5.329651 	 -4.411379 	 -5.261598 
H 	 4.592734 	 -3.052386 	 -5.562244 
H 	 6.555747 	 0.726197 	 5.563947 
H 	 -7.063604 	 1.420761 	 6.154913 
H 	 5.076721 	 -2.271837 	 4.867256 
H 	 3.896083 	 -3.310072 	 5.045742 
H 	 3.128571 	 2.424584 	 -4.616219 
H 	 2.967845 	 3.704971 	 -5.461080 
H 	 -7.514004 	 -5.030728 	 -1.941281 
H 	 6.071341 	 -5.824737 	 -1.378915 
H 	 -4.567556 	 5.402251 	 -7.520255 
H 	 -3.055468 	 4.806476 	 -7.127607 
H 	 5.270441 	 -6.889870 	 7.234535 
H 	 5.589918 	 -5.779102 	 6.221371 
H 	 4.764083 	 5.652955 	 -6.394686 
H 	 5.444026 	 6.786581 	 -5.444651 
H 	 4.007744 	 0.581495 	 -6.066381 
H 	 3.496720 	 -0.035226 	 -4.755687 
H 	 1.097498 	 -3.255059 	 1.547590 
H 	 1.605155 	 -4.707008 	 0.971159 
H 	 4.904684 	 -0.655179 	 -0.005342 
H 	 3.982285 	 -1.399967 	 1.019966 
H 	 -6.184655 	 -5.836720 	 7.198943 
H 	 7.341492 	 -5.449485 	 -6.958427 
H 	 0.336340 	 -2.437258 	 -6.361618 
H 	 0.819607 	 -2.490124 	 7.023882 
H 	 -0.497127 	 -6.299166 	 -7.057206 
H 	 -0.392617 	 7.446151 	 -6.003835 
H 	 0.602177 	 0.251323 	 1.132146 
H 	 2.038176 	 0.232310 	 1.729009 
H 	 2.349325 	 -6.383765 	 1.932499 
H 	 1.710464 	 -7.330980 	 0.857100 
H 	 -2.954606 	 0.230390 	 1.118717 
H 	 -4.209072 	 1.197763 	 1.177773 
H 	 -4.156759 	 -5.969106 	 -7.054325 
H 	 -3.253932 	 -7.106030 	 -7.474506 
H 	 0.321117 	 3.684155 	 5.510611 
H 	 0.926192 	 5.140769 	 5.733806 
H 	 -1.195290 	 -5.784060 	 3.417481 
H 	 -0.539893 	 -4.355212 	 3.733373 
H 	 -6.502264 	 -3.003644 	 -3.238319 
H 	 -5.233485 	 -3.233021 	 -2.612668 
H 	 -0.959950 	 2.152067 	 -3.655961 
H 	 -2.225375 	 1.776323 	 -2.960242 
H 	 4.961859 	 5.419993 	 -1.259555 
H 	 4.715056 	 5.897447 	 0.189146 
H 	 -0.408592 	 2.930202 	 0.013877 
H 	 -1.511722 	 3.172102 	 1.036312 
H 	 -0.311332 	 5.477391 	 -0.114532 
H 	 -1.542965 	 5.166507 	 -0.747958 
H 	 6.163084 	 0.766128 	 3.002285 
H 	 5.168481 	 1.865366 	 2.427094 
H 	 6.576327 	 3.100942 	 6.775646 
H 	 6.525617 	 3.890240 	 -6.785919 
H 	 -4.144577 	 -3.351639 	 1.957518 
H 	 -4.708071 	 -4.327832 	 3.034014 
H 	 2.131022 	 5.317178 	 1.776432 
H 	 2.105477 	 4.589402 	 0.478287 
H 	 0.414492 	 -0.541388 	 5.837213 
H 	 1.697095 	 -1.293688 	 5.310765 
H 	 -5.556129 	 0.706840 	 -4.796251 
H 	 -6.559012 	 1.333388 	 -3.680441 
H 	 -1.226094 	 -0.412310 	 0.064004 
H 	 -1.257553 	 -1.186345 	 1.351307 
H 	 -0.365451 	 7.109842 	 -3.149505 
H 	 0.099354 	 7.436587 	 -1.735802 
H 	 -3.863966 	 2.334081 	 -1.932969 
H 	 -2.542843 	 2.752912 	 -1.194661 
H 	 -6.006341 	 0.006217 	 3.125165 
H 	 -6.799041 	 -1.121139 	 2.577484 
H 	 4.328836 	 -5.003141 	 -0.888378 
H 	 4.162611 	 -6.645479 	 -0.874446 
H 	 7.298917 	 -1.204047 	 5.815875 
H 	 7.194755 	 -1.045084 	 4.376480 
H 	 -7.248666 	 -4.298740 	 4.483638 
H 	 -7.154844 	 -5.714739 	 5.109600 
H 	 -6.035260 	 -0.599140 	 -7.316732 
H 	 -6.903026 	 -1.288647 	 -6.311180 
H 	 3.274229 	 4.396867 	 4.069416 
H 	 1.865028 	 3.737968 	 3.840207 
H 	 5.949024 	 -3.347734 	 3.094004 
H 	 7.134311 	 -3.378123 	 2.049355 
H 	 6.387283 	 3.662177 	 -1.394481 
H 	 7.166758 	 3.996781 	 -0.001152 
H 	 -0.243470 	 5.028433 	 -4.351659 
H 	 -1.702847 	 5.771038 	 -4.142640 
H 	 -4.312495 	 -2.579821 	 5.459046 
H 	 -4.723882 	 -2.342026 	 4.058992 
H 	 -7.515134 	 4.668869 	 2.357564 
H 	 -6.932948 	 5.691361 	 1.492102 
H 	 4.549393 	 -5.167990 	 1.879003 
H 	 3.766376 	 -4.764519 	 3.134023 
H 	 -7.305107 	 -3.809787 	 -0.213258 
H 	 6.475339 	 -2.945899 	 -0.907973 
H 	 4.143570 	 -0.146092 	 2.867345 
H 	 3.514749 	 -1.580488 	 3.242432 
H 	 -0.798051 	 -1.505024 	 -4.583239 
H 	 -0.029379 	 -0.207716 	 -5.283309 
H 	 0.902459 	 -3.121112 	 -2.092143 
H 	 1.420070 	 -2.768543 	 -0.632635 
H 	 0.458457 	 3.812890 	 -2.051198 
H 	 1.392422 	 3.622039 	 -3.195425 
H 	 -0.038845 	 -6.183619 	 0.952266 
H 	 -0.304165 	 -6.051604 	 -0.611694 
H 	 1.571349 	 2.302096 	 0.337834 
H 	 1.983226 	 2.588926 	 -1.148877 
H 	 -1.076360 	 -2.002313 	 3.114845 
H 	 0.069991 	 -2.089518 	 4.147197 
H 	 4.133074 	 1.699574 	 4.936291 
H 	 0.192841 	 1.317084 	 -7.146290 
H 	 -2.986444 	 -6.256048 	 -0.418782 
H 	 -3.763813 	 7.297888 	 -0.131973 
H 	 -6.884768 	 -5.746691 	 1.452788 
H 	 6.825956 	 -6.216286 	 0.475860 
H 	 6.260254 	 0.639923 	 -2.448669 
H 	 5.353377 	 0.910850 	 -3.770070 
H 	 1.979529 	 7.499404 	 6.252336 
H 	 1.809097 	 -7.274573 	 4.797576 
H 	 1.140697 	 1.934451 	 -5.975195 
O 	 -4.606663 	 7.206425 	 4.798775 
O 	 7.183960 	 3.496081 	 -5.289989 
O 	 -2.943128 	 6.369517 	 -3.231604 
O 	 -6.565233 	 7.311348 	 2.899907 
O 	 -3.647405 	 5.461948 	 -0.271032 
O 	 -5.636503 	 4.845395 	 -2.251738 
O 	 -1.284423 	 3.248724 	 3.210164 
O 	 -3.656239 	 -1.376649 	 -2.316673 
O 	 -1.416799 	 4.548696 	 -6.960605 
O 	 -2.352203 	 -3.873752 	 -1.314855 
O 	 5.885591 	 -6.829322 	 4.224517 
O 	 -0.971459 	 -0.609129 	 -1.620876 
O 	 4.615221 	 -3.396350 	 -1.537861 
O 	 -5.569896 	 -0.953982 	 -0.141877 
O 	 2.417455 	 7.396969 	 -6.457038 
O 	 -5.645318 	 -7.375724 	 -2.113352 
O 	 5.179242 	 4.507175 	 -2.911448 
O 	 -3.121012 	 1.658357 	 -6.136132 
O 	 -0.288292 	 0.831461 	 6.001902 
O 	 2.977978 	 -0.044060 	 7.251595 
O 	 0.282299 	 -5.491682 	 6.361710 
O 	 4.184697 	 -2.744874 	 7.266926 
O 	 -5.329316 	 4.276374 	 4.452322 
O 	 -2.975411 	 -6.465249 	 2.795878 
O 	 4.119415 	 3.090844 	 1.369104 
O 	 3.141717 	 -6.865687 	 -2.680068 
O 	 0.394702 	 -4.333150 	 -3.315240 
O 	 3.025971 	 -5.207520 	 5.627992 
O 	 -4.614436 	 -3.820221 	 -5.578069 
O 	 -5.551342 	 1.334736 	 7.124728 
O 	 6.228516 	 6.858446 	 -3.775514 
O 	 -5.211623 	 1.821248 	 -1.050142 
O 	 -6.475875 	 6.093652 	 6.969988 
O 	 -4.299530 	 -0.918917 	 -5.061790 
O 	 -4.194560 	 3.430326 	 1.883830 
O 	 6.723223 	 4.012635 	 4.024178 
O 	 -3.177920 	 2.767577 	 5.643058 
O 	 3.343581 	 4.081996 	 -7.075617 
O 	 3.151320 	 1.065765 	 -1.721155 
O 	 7.131697 	 -1.632753 	 -4.244575 
O 	 2.042745 	 -4.629482 	 -5.551920 
O 	 6.329243 	 0.576514 	 -0.218106 
O 	 -2.329091 	 -3.046673 	 1.299117 
O 	 -6.108357 	 7.108420 	 -5.063502 
O 	 2.714293 	 -1.150496 	 -3.562244 
O 	 4.417717 	 5.515578 	 5.299198 
O 	 -2.861473 	 -5.772728 	 -4.694950 
O 	 -1.844548 	 -3.032678 	 -4.365065 
O 	 1.044686 	 2.108904 	 4.320608 
O 	 -2.160292 	 -0.525259 	 4.118654 
O 	 -1.139505 	 5.943317 	 2.569498 
O 	 4.855284 	 -3.695702 	 -4.875640 
O 	 7.042372 	 1.630382 	 5.659985 
O 	 4.356772 	 -2.790126 	 4.387820 
O 	 2.910281 	 3.378448 	 -4.560606 
O 	 6.763792 	 -5.806460 	 -2.117951 
O 	 -4.017539 	 4.820401 	 -6.891703 
O 	 5.282296 	 -5.913917 	 7.135381 
O 	 5.124128 	 6.578710 	 -6.376480 
O 	 3.976192 	 0.739061 	 -5.075417 
O 	 1.669412 	 -3.734669 	 0.906946 
O 	 4.215740 	 -1.375480 	 0.041253 
O 	 -6.587065 	 -5.475823 	 -6.879488 
O 	 0.546756 	 -3.102756 	 -7.121906 
O 	 -1.021386 	 -6.919966 	 -6.477903 
O 	 1.340574 	 0.828732 	 1.379670 
O 	 1.490331 	 -6.802199 	 1.682561 
O 	 -3.887149 	 0.328977 	 1.453990 
O 	 -3.844203 	 -6.412179 	 7.074534 
O 	 0.569664 	 4.343923 	 6.169129 
O 	 -0.395427 	 -5.351010 	 3.750562 
O 	 -5.808350 	 -3.688604 	 -3.197028 
O 	 -1.589001 	 1.407530 	 -3.624222 
O 	 4.994193 	 6.196199 	 -0.678236 
O 	 -1.360905 	 3.181140 	 0.083405 
O 	 -0.861236 	 5.867932 	 -0.825085 
O 	 5.250549 	 1.184565 	 3.109654 
O 	 6.322887 	 3.950621 	 7.186351 
O 	 -4.931511 	 -3.533567 	 2.586956 
O 	 2.142229 	 5.476832 	 0.837876 
O 	 0.773571 	 -1.489634 	 5.534759 
O 	 -6.053940 	 1.495719 	 -4.513766 
O 	 -1.159455 	 -0.261985 	 1.037782 
O 	 -0.118271 	 -6.995889 	 -2.573580 
O 	 -3.074351 	 2.919919 	 -2.067151 
O 	 -6.853312 	 -0.169014 	 2.764629 
O 	 4.624989 	 -5.866403 	 -0.469764 
O 	 6.576943 	 -1.164286 	 5.132463 
O 	 -6.781869 	 -4.835072 	 5.131630 
O 	 -6.691401 	 -1.335327 	 -7.306214 
O 	 2.547306 	 4.361138 	 3.413966 
O 	 6.882396 	 -3.095131 	 2.948677 
O 	 7.140194 	 3.397993 	 -0.832523 
O 	 -0.705719 	 5.849899 	 -4.531905 
O 	 -4.396405 	 -1.853892 	 4.816939 
O 	 -7.189491 	 4.719837 	 1.449929 
O 	 4.117517 	 -5.508652 	 2.668359 
O 	 -7.501792 	 -2.894510 	 -0.568214 
O 	 3.470724 	 -0.813919 	 2.602143 
O 	 0.026325 	 -1.164116 	 -4.961069 
O 	 1.129177 	 -2.369146 	 -1.512256 
O 	 0.459396 	 3.698028 	 -3.023076 
O 	 -0.753631 	 -5.895293 	 0.268668 
O 	 1.516384 	 2.996156 	 -0.371119 
O 	 -0.423607 	 -2.630195 	 3.514385 
O 	 3.432203 	 1.985300 	 5.570611 
O 	 -3.861107 	 -6.607268 	 -0.178909 
O 	 -7.513195 	 -5.446907 	 0.749973 
O 	 6.291889 	 0.843065 	 -3.400286 
O 	 1.956313 	 6.910269 	 5.432807 
O 	 0.753224 	 1.120822 	 -6.371095 
K 	 -4.429999 	 3.885857 	 -4.561717 
