333
conformation = 30
H 	 -4.684031 	 6.231622 	 4.910611 
H 	 -4.761652 	 -7.147804 	 5.631607 
H 	 6.649759 	 3.269093 	 -4.437345 
H 	 -7.113957 	 2.740832 	 -5.227997 
H 	 -2.786408 	 6.272052 	 -2.409337 
H 	 -3.222523 	 7.287561 	 -3.558072 
H 	 -7.331807 	 7.388955 	 3.520779 
H 	 -5.833146 	 7.301085 	 3.336490 
H 	 -3.749150 	 4.932561 	 0.567726 
H 	 -4.318053 	 5.037034 	 -0.897214 
H 	 -6.424096 	 4.356217 	 -1.849154 
H 	 -5.869674 	 5.804104 	 -2.119683 
H 	 -0.656836 	 2.627847 	 3.742444 
H 	 -1.121686 	 4.063044 	 3.219857 
H 	 -4.265578 	 -1.454485 	 -1.509355 
H 	 -2.869034 	 -1.009008 	 -2.003564 
H 	 -0.832742 	 4.658119 	 7.227994 
H 	 -1.312929 	 5.254441 	 -6.383381 
H 	 -2.751797 	 -3.165884 	 -2.004650 
H 	 -1.545040 	 -3.977801 	 -1.697490 
H 	 5.283537 	 7.197300 	 4.623574 
H 	 5.165410 	 -6.394606 	 3.751961 
H 	 -0.190053 	 -1.194403 	 -1.661425 
H 	 -0.975252 	 -0.057459 	 -2.412769 
H 	 4.329232 	 -3.259890 	 -2.451226 
H 	 4.408959 	 -2.661207 	 -0.976571 
H 	 -6.225949 	 -1.576695 	 0.191765 
H 	 -5.044477 	 -0.550640 	 0.534810 
H 	 3.248393 	 7.139544 	 -6.540193 
H 	 2.274412 	 -6.653269 	 -6.040725 
H 	 -6.485908 	 -6.798542 	 -2.093251 
H 	 -5.022103 	 -6.941261 	 -1.566656 
H 	 5.389350 	 5.328821 	 -3.176932 
H 	 4.367259 	 4.011881 	 -3.356538 
H 	 -2.402152 	 1.772484 	 -5.553210 
H 	 -3.380984 	 0.726325 	 -6.077757 
H 	 0.159953 	 1.179817 	 5.266485 
H 	 -1.143762 	 0.406908 	 5.823301 
H 	 2.130235 	 0.148043 	 -7.316593 
H 	 3.218487 	 0.536950 	 6.558742 
H 	 -0.151902 	 -5.569461 	 5.513003 
H 	 0.186462 	 -4.667624 	 6.830743 
H 	 3.501442 	 -2.031200 	 7.286349 
H 	 3.639419 	 -3.555723 	 7.158557 
H 	 -4.983936 	 3.696045 	 5.181466 
H 	 -6.309270 	 4.185232 	 4.500401 
H 	 -3.459051 	 -6.866657 	 2.070825 
H 	 -3.469608 	 -6.932690 	 3.608391 
H 	 3.764293 	 3.063733 	 0.371975 
H 	 3.495379 	 3.403852 	 1.885210 
H 	 3.012461 	 7.024034 	 -2.329972 
H 	 2.185276 	 -6.885581 	 -3.122507 
H 	 0.995220 	 -4.276199 	 -4.113417 
H 	 0.209972 	 -5.333957 	 -3.138074 
H 	 3.361521 	 -5.670167 	 6.479310 
H 	 1.997894 	 -5.180152 	 5.872096 
H 	 -5.389028 	 -4.073540 	 -6.237536 
H 	 -5.203312 	 -3.923264 	 -4.742509 
H 	 -4.862274 	 1.331218 	 6.407877 
H 	 -5.434633 	 2.013924 	 -7.262756 
H 	 6.243329 	 -7.322607 	 -3.167712 
H 	 7.125656 	 6.807003 	 -4.244377 
H 	 -5.468592 	 0.828882 	 -1.015239 
H 	 -6.104047 	 2.295539 	 -0.846239 
H 	 -6.737760 	 6.073440 	 -6.966178 
H 	 -7.200287 	 5.188745 	 6.791421 
H 	 -4.798726 	 -1.795713 	 -5.474551 
H 	 -4.162697 	 -1.328935 	 -4.173204 
H 	 -3.314753 	 3.185838 	 2.269644 
H 	 -4.815901 	 3.583529 	 2.630657 
H 	 6.520956 	 3.091079 	 4.344182 
H 	 5.834431 	 4.476323 	 4.183505 
H 	 -2.692223 	 2.509171 	 6.436818 
H 	 -2.524747 	 3.129768 	 5.016917 
H 	 2.538606 	 4.270096 	 7.314393 
H 	 3.770237 	 3.322924 	 7.312738 
H 	 2.879855 	 0.548461 	 -0.850037 
H 	 2.766437 	 0.466675 	 -2.446755 
H 	 6.985579 	 -0.795075 	 -4.023904 
H 	 6.089220 	 -2.030880 	 -4.336182 
H 	 1.825521 	 -3.952723 	 -6.008014 
H 	 3.051076 	 -4.629903 	 -5.266848 
H 	 6.502761 	 1.366227 	 -0.115542 
H 	 7.123235 	 -0.036315 	 0.128141 
H 	 -2.280051 	 -3.219680 	 0.320776 
H 	 -2.015422 	 -4.047417 	 1.598709 
H 	 -5.664883 	 -7.347831 	 -4.272849 
H 	 -6.235307 	 -7.026828 	 -5.631074 
H 	 2.486793 	 -1.519580 	 -2.686291 
H 	 1.702812 	 -1.153784 	 -3.987894 
H 	 4.554223 	 5.311715 	 6.202606 
H 	 3.563660 	 5.949190 	 5.320534 
H 	 -3.674799 	 -5.214985 	 -4.922361 
H 	 -2.378122 	 -6.027588 	 -5.480184 
H 	 -1.052696 	 -3.693671 	 -4.255187 
H 	 -2.607995 	 -3.526779 	 -4.646622 
H 	 2.606420 	 1.938084 	 4.917819 
H 	 1.055219 	 1.654910 	 3.454778 
H 	 -2.926119 	 -1.290696 	 4.224427 
H 	 -2.532859 	 0.025206 	 3.467260 
H 	 -0.491559 	 6.589802 	 2.433412 
H 	 -2.016313 	 6.538435 	 2.531975 
H 	 5.192040 	 -4.590589 	 -5.212657 
H 	 4.594582 	 -3.416332 	 -5.807878 
H 	 6.421413 	 0.769234 	 5.445676 
H 	 -7.232984 	 1.259516 	 6.318980 
H 	 5.066153 	 -2.365796 	 4.992403 
H 	 3.877168 	 -3.397217 	 5.044333 
H 	 3.164898 	 2.354348 	 -4.812364 
H 	 3.182202 	 3.816523 	 -5.366205 
H 	 7.235151 	 -5.079989 	 -2.081170 
H 	 5.946602 	 -5.830104 	 -1.522465 
H 	 -4.504583 	 5.441154 	 -7.460367 
H 	 -3.216153 	 4.641347 	 -7.214486 
H 	 5.127323 	 -6.963037 	 7.266967 
H 	 5.656289 	 -5.794095 	 6.301047 
H 	 4.617770 	 5.716356 	 -6.515238 
H 	 5.370133 	 6.592203 	 -5.425391 
H 	 3.845024 	 0.516520 	 -6.000509 
H 	 3.492452 	 0.009815 	 -4.538860 
H 	 1.326535 	 -3.358084 	 1.800526 
H 	 1.342420 	 -4.648469 	 1.051570 
H 	 4.843980 	 -0.755495 	 -0.026570 
H 	 3.780786 	 -1.441656 	 0.973202 
H 	 -6.564096 	 -5.790691 	 7.155773 
H 	 -7.616332 	 -5.706900 	 -6.776506 
H 	 0.043476 	 -2.483559 	 -6.438889 
H 	 0.606376 	 -2.541151 	 7.002775 
H 	 -0.495835 	 -6.896236 	 -7.173542 
H 	 -0.493798 	 7.400330 	 -5.701987 
H 	 0.452779 	 0.269028 	 1.308308 
H 	 2.075007 	 0.073147 	 1.434861 
H 	 2.248884 	 -6.539971 	 2.080620 
H 	 1.768889 	 7.217018 	 1.246647 
H 	 -2.992725 	 0.329020 	 1.394207 
H 	 -4.081699 	 1.345704 	 1.298133 
H 	 -4.174669 	 -5.932736 	 -7.018664 
H 	 -3.212282 	 -7.092802 	 -7.391172 
H 	 0.415942 	 3.540355 	 5.496056 
H 	 0.812517 	 5.088107 	 5.601665 
H 	 -1.206798 	 -5.836000 	 3.417648 
H 	 -0.560761 	 -4.488703 	 3.431667 
H 	 -6.584391 	 -3.048698 	 -3.294833 
H 	 -5.071255 	 -3.401343 	 -2.735079 
H 	 -0.788673 	 1.949929 	 -3.567057 
H 	 -2.246317 	 1.860720 	 -3.103647 
H 	 4.923099 	 5.309835 	 -1.156365 
H 	 4.568591 	 5.922987 	 0.237454 
H 	 -0.410324 	 3.083951 	 0.095160 
H 	 -1.657670 	 3.289780 	 1.021953 
H 	 -0.352315 	 5.522462 	 -0.071206 
H 	 -1.756061 	 5.293666 	 -0.725679 
H 	 6.112038 	 0.828545 	 2.913974 
H 	 4.990261 	 1.681976 	 2.275089 
H 	 6.008611 	 3.140910 	 6.801538 
H 	 6.641208 	 3.612574 	 -6.790415 
H 	 -4.347957 	 -3.609053 	 1.911354 
H 	 -4.879842 	 -4.315637 	 3.296832 
H 	 1.978387 	 5.219517 	 1.773869 
H 	 2.058130 	 4.627492 	 0.302128 
H 	 0.289387 	 -0.605308 	 5.696288 
H 	 1.701797 	 -1.300926 	 5.685481 
H 	 -5.590093 	 0.552377 	 -4.850663 
H 	 -6.541699 	 1.129388 	 -3.789150 
H 	 -1.258374 	 -0.408164 	 0.007666 
H 	 -1.568007 	 -1.175834 	 1.311421 
H 	 -0.200256 	 6.997296 	 -3.173307 
H 	 -0.247471 	 7.367366 	 -1.676853 
H 	 -3.956888 	 2.510005 	 -1.788567 
H 	 -2.580991 	 2.898379 	 -1.199078 
H 	 -5.898568 	 0.128324 	 2.818270 
H 	 -6.866758 	 -1.143468 	 2.609443 
H 	 4.358008 	 -5.028265 	 -0.819982 
H 	 4.100388 	 -6.534983 	 -0.878256 
H 	 7.010295 	 -1.378120 	 6.062493 
H 	 -7.612384 	 -0.987328 	 4.480476 
H 	 -7.443049 	 -4.298670 	 4.436412 
H 	 -7.153031 	 -5.705439 	 4.951480 
H 	 -6.280164 	 -0.565199 	 -7.422101 
H 	 -7.317896 	 -1.347386 	 -6.530525 
H 	 3.365016 	 4.564746 	 3.849852 
H 	 2.066860 	 3.624108 	 4.030375 
H 	 5.809416 	 -3.270998 	 3.106634 
H 	 7.007360 	 -3.413800 	 2.173429 
H 	 6.454897 	 3.710989 	 -1.380466 
H 	 7.204280 	 3.992136 	 0.077091 
H 	 -0.287449 	 4.970162 	 -4.084064 
H 	 -1.531555 	 5.970406 	 -4.114363 
H 	 -4.564219 	 -2.682002 	 5.414832 
H 	 -4.808807 	 -2.215907 	 4.012357 
H 	 7.224479 	 4.380054 	 2.285594 
H 	 -7.212038 	 5.689802 	 1.523450 
H 	 4.482250 	 -5.344274 	 1.782109 
H 	 3.678544 	 -4.704726 	 3.040429 
H 	 -7.411272 	 -3.689107 	 -0.016047 
H 	 6.459595 	 -2.948976 	 -0.899939 
H 	 4.118063 	 -0.201684 	 2.814790 
H 	 3.676037 	 -1.565756 	 3.309987 
H 	 -0.996469 	 -1.619739 	 -4.878099 
H 	 -0.176520 	 -0.366035 	 -5.290402 
H 	 0.910399 	 -3.136242 	 -2.109113 
H 	 1.388613 	 -2.903386 	 -0.656667 
H 	 0.394724 	 3.769758 	 -1.971940 
H 	 1.280591 	 3.624099 	 -3.348506 
H 	 -0.045658 	 -6.284967 	 0.965341 
H 	 -0.404660 	 -6.072089 	 -0.495010 
H 	 1.558906 	 2.165742 	 0.356734 
H 	 1.736410 	 2.387999 	 -1.137638 
H 	 -1.127138 	 -2.125521 	 3.287507 
H 	 0.059549 	 -2.214561 	 4.221579 
H 	 4.126907 	 2.190540 	 4.807572 
H 	 0.084658 	 1.341579 	 -7.057756 
H 	 -3.039169 	 -6.191834 	 -0.340999 
H 	 -3.610987 	 7.284205 	 -0.147259 
H 	 -7.146333 	 -6.196320 	 1.421979 
H 	 6.606396 	 -6.088498 	 0.471004 
H 	 5.911844 	 0.734234 	 -2.518683 
H 	 5.426848 	 0.766003 	 -3.925330 
H 	 1.929806 	 7.383778 	 6.235200 
H 	 1.800310 	 -7.345109 	 4.657849 
H 	 0.915853 	 1.945843 	 -5.923937 
O 	 -4.657788 	 7.197575 	 4.818217 
O 	 7.158980 	 3.501713 	 -5.272944 
O 	 -2.912196 	 6.360627 	 -3.356861 
O 	 -6.658320 	 7.223367 	 2.841246 
O 	 -3.747205 	 5.477735 	 -0.244118 
O 	 -5.687090 	 4.823341 	 -2.254606 
O 	 -1.355176 	 3.113666 	 3.230155 
O 	 -3.673045 	 -1.452741 	 -2.304744 
O 	 -1.478549 	 4.502184 	 -6.938089 
O 	 -2.439746 	 -3.859213 	 -1.356002 
O 	 5.792129 	 -6.976795 	 4.223406 
O 	 -1.019439 	 -0.673146 	 -1.640219 
O 	 4.617498 	 -3.447162 	 -1.567911 
O 	 -5.612505 	 -0.899547 	 -0.195054 
O 	 2.321832 	 7.416833 	 -6.541231 
O 	 -5.731813 	 -7.376472 	 -2.078154 
O 	 5.131354 	 4.445369 	 -2.891664 
O 	 -3.143393 	 1.660242 	 -6.167111 
O 	 -0.314063 	 0.762277 	 6.084282 
O 	 3.044068 	 -0.081603 	 7.298157 
O 	 0.155418 	 -5.591970 	 6.466460 
O 	 4.135992 	 -2.783677 	 7.348653 
O 	 -5.333033 	 4.220869 	 4.499093 
O 	 -2.995710 	 -6.538113 	 2.857436 
O 	 4.120504 	 3.039189 	 1.274580 
O 	 3.051023 	 -6.928587 	 -2.677247 
O 	 0.353200 	 -4.341472 	 -3.330527 
O 	 2.943851 	 -5.349035 	 5.627359 
O 	 -4.670343 	 -3.952349 	 -5.579912 
O 	 -5.648294 	 1.322400 	 7.001083 
O 	 6.263568 	 6.837790 	 -3.751169 
O 	 -5.235927 	 1.773948 	 -1.031810 
O 	 -6.641073 	 5.985076 	 6.962419 
O 	 -4.367962 	 -1.003564 	 -5.102799 
O 	 -4.169712 	 3.441944 	 1.849798 
O 	 6.685289 	 3.989875 	 4.048904 
O 	 -3.222522 	 2.756779 	 5.623490 
O 	 3.390793 	 4.091695 	 -7.159084 
O 	 3.067539 	 1.053908 	 -1.709275 
O 	 7.029554 	 -1.776108 	 -4.242784 
O 	 2.088557 	 -4.726264 	 -5.512091 
O 	 6.323294 	 0.440653 	 -0.198676 
O 	 -2.368027 	 -3.195728 	 1.313756 
O 	 -6.121689 	 7.122971 	 -5.010939 
O 	 2.598784 	 -1.164833 	 -3.629966 
O 	 4.399143 	 5.428087 	 5.248590 
O 	 -2.913564 	 -5.778869 	 -4.630269 
O 	 -1.835733 	 -3.068186 	 -4.341374 
O 	 0.969422 	 2.058228 	 4.333746 
O 	 -2.184741 	 -0.562365 	 4.158168 
O 	 -1.217737 	 5.945872 	 2.537282 
O 	 4.851603 	 -3.714647 	 -4.888487 
O 	 6.981449 	 1.516939 	 5.659064 
O 	 4.372729 	 -2.826176 	 4.380476 
O 	 2.911587 	 3.283450 	 -4.514852 
O 	 6.782818 	 -5.921523 	 -2.131726 
O 	 -4.096953 	 4.839047 	 -6.827834 
O 	 5.144192 	 -5.974289 	 7.132420 
O 	 5.094703 	 6.567002 	 -6.402302 
O 	 3.998625 	 0.728586 	 -5.067696 
O 	 1.653929 	 -3.724576 	 0.930615 
O 	 4.170676 	 -1.416905 	 0.043424 
O 	 -6.626371 	 -5.546574 	 -6.812211 
O 	 0.501195 	 -3.085837 	 -7.087228 
O 	 -1.035036 	 -7.017139 	 -6.369757 
O 	 1.337467 	 0.743612 	 1.395836 
O 	 1.428851 	 -6.860771 	 1.647198 
O 	 -3.976942 	 0.371980 	 1.475627 
O 	 -3.859671 	 -6.482788 	 7.105828 
O 	 0.595154 	 4.277911 	 6.157504 
O 	 -0.397231 	 -5.396897 	 3.728518 
O 	 -5.896014 	 -3.725454 	 -3.219632 
O 	 -1.579552 	 1.335941 	 -3.582140 
O 	 4.894552 	 6.191582 	 -0.678073 
O 	 -1.403977 	 3.165546 	 0.080956 
O 	 -0.919566 	 5.788756 	 -0.813079 
O 	 5.215362 	 1.082638 	 3.056911 
O 	 6.302606 	 3.953337 	 7.238250 
O 	 -5.037931 	 -3.579433 	 2.619497 
O 	 2.065153 	 5.466841 	 0.816472 
O 	 0.758186 	 -1.497743 	 5.503009 
O 	 -6.090130 	 1.385818 	 -4.620211 
O 	 -1.245171 	 -0.330044 	 0.963916 
O 	 -0.177645 	 -7.084687 	 -2.562999 
O 	 -3.064824 	 2.877049 	 -2.068019 
O 	 -6.849238 	 -0.178817 	 2.800533 
O 	 4.630214 	 -5.858046 	 -0.406790 
O 	 6.629257 	 -1.196732 	 5.182354 
O 	 -6.881396 	 -4.772880 	 5.123898 
O 	 -6.775412 	 -1.404890 	 -7.312007 
O 	 2.511178 	 4.270464 	 3.419582 
O 	 6.766162 	 -2.998818 	 3.018712 
O 	 7.156123 	 3.380227 	 -0.783490 
O 	 -0.650460 	 5.740209 	 -4.638442 
O 	 -4.401715 	 -1.907286 	 4.861990 
O 	 -7.262945 	 4.718830 	 1.440370 
O 	 4.006083 	 -5.536937 	 2.613355 
O 	 -7.515852 	 -2.900834 	 -0.551176 
O 	 3.450809 	 -0.927381 	 2.604528 
O 	 -0.054005 	 -1.231905 	 -4.960401 
O 	 1.147316 	 -2.430081 	 -1.475313 
O 	 0.396920 	 3.667496 	 -2.933753 
O 	 -0.767004 	 -5.990738 	 0.377078 
O 	 1.445366 	 2.907316 	 -0.347974 
O 	 -0.419276 	 -2.713763 	 3.502351 
O 	 3.436284 	 1.957775 	 5.452650 
O 	 -3.888391 	 -6.680832 	 -0.197738 
O 	 -7.536574 	 -5.551748 	 0.795482 
O 	 6.227727 	 0.795940 	 -3.423849 
O 	 1.965592 	 6.938050 	 5.409496 
O 	 0.637107 	 1.086307 	 -6.293907 
K 	 -4.491985 	 3.815305 	 -4.572147 
