333
conformation = 61
H 	 -4.560514 	 6.250099 	 4.899288 
H 	 -4.317189 	 -7.307462 	 5.884344 
H 	 6.833496 	 3.306997 	 -4.212155 
H 	 -6.978254 	 2.694983 	 -5.046523 
H 	 -2.874401 	 6.191527 	 -2.490380 
H 	 -2.801984 	 7.385926 	 -3.568263 
H 	 -7.402993 	 7.313029 	 3.367993 
H 	 -5.955797 	 7.043643 	 3.614374 
H 	 -3.707996 	 4.949576 	 0.759221 
H 	 -4.210638 	 5.218802 	 -0.701418 
H 	 -6.218327 	 4.395545 	 -1.620429 
H 	 -5.637933 	 5.842081 	 -2.016779 
H 	 -0.337657 	 2.751010 	 3.752456 
H 	 -1.227904 	 3.983135 	 3.348780 
H 	 -3.990230 	 -1.044336 	 -1.407847 
H 	 -2.564613 	 -1.261536 	 -1.858836 
H 	 -0.535023 	 4.345896 	 7.497298 
H 	 -0.834523 	 4.706716 	 -5.983869 
H 	 -2.644470 	 -2.995497 	 -1.743785 
H 	 -1.410990 	 -3.872132 	 -1.735129 
H 	 5.558569 	 6.942732 	 4.657466 
H 	 5.410333 	 -6.647231 	 3.788719 
H 	 -0.005233 	 -1.195705 	 -1.741741 
H 	 -0.789631 	 0.048681 	 -2.229738 
H 	 4.588497 	 -3.372431 	 -2.328926 
H 	 4.451930 	 -2.733058 	 -0.909807 
H 	 -5.843359 	 -1.616176 	 0.045720 
H 	 -4.841446 	 -0.566598 	 0.705108 
H 	 3.337522 	 7.241451 	 -6.334290 
H 	 2.377492 	 -6.429538 	 -6.357979 
H 	 -6.346127 	 -6.928752 	 -1.512049 
H 	 -4.836454 	 -6.980809 	 -1.325303 
H 	 5.878935 	 5.096529 	 -3.074360 
H 	 4.525932 	 4.220895 	 -3.138205 
H 	 -2.061064 	 1.992984 	 -5.578168 
H 	 -2.964716 	 0.763538 	 -5.810564 
H 	 0.438351 	 1.340397 	 5.677010 
H 	 -0.990531 	 0.719777 	 5.967191 
H 	 2.585006 	 0.354387 	 -7.060454 
H 	 3.733676 	 0.540638 	 6.866056 
H 	 -0.028523 	 -5.621607 	 5.782981 
H 	 -0.141405 	 -4.957035 	 7.287889 
H 	 4.024262 	 -1.859639 	 -7.277434 
H 	 3.653167 	 -3.331339 	 7.272233 
H 	 -4.686553 	 3.545540 	 5.194892 
H 	 -6.039189 	 4.211415 	 4.766717 
H 	 -3.289115 	 -6.222756 	 2.394937 
H 	 -3.387206 	 -6.928457 	 3.798799 
H 	 3.801184 	 2.571606 	 0.722822 
H 	 3.955671 	 3.390744 	 2.040064 
H 	 3.155924 	 7.105016 	 -1.970440 
H 	 2.240822 	 -6.816241 	 -2.663036 
H 	 1.347923 	 -4.462417 	 -3.876451 
H 	 0.323415 	 -5.212719 	 -2.775875 
H 	 3.790060 	 -5.789606 	 6.349605 
H 	 2.248252 	 -5.464555 	 6.335059 
H 	 -5.310361 	 -4.323740 	 -5.930186 
H 	 -4.873121 	 -4.013724 	 -4.530802 
H 	 -4.608768 	 1.231645 	 6.535185 
H 	 -5.113161 	 1.892519 	 -7.122636 
H 	 6.471223 	 -7.320959 	 -3.045423 
H 	 -7.422505 	 6.822874 	 -4.031925 
H 	 -5.384274 	 0.926233 	 -0.494895 
H 	 -5.794299 	 2.480353 	 -0.616875 
H 	 -6.434214 	 5.960210 	 -6.805073 
H 	 -7.278733 	 5.200851 	 7.098695 
H 	 -4.630486 	 -1.814834 	 -5.367206 
H 	 -3.967027 	 -1.356667 	 -4.106256 
H 	 -2.964889 	 3.237681 	 2.372183 
H 	 -4.347213 	 3.955972 	 2.753316 
H 	 6.975667 	 3.213072 	 4.752655 
H 	 6.237256 	 4.566514 	 4.650507 
H 	 -2.391559 	 2.575091 	 6.581526 
H 	 -2.414843 	 2.724834 	 4.978654 
H 	 2.773475 	 4.528403 	 -7.248834 
H 	 3.759971 	 3.406234 	 7.225120 
H 	 3.763545 	 0.375329 	 -1.060915 
H 	 2.980948 	 0.783473 	 -2.436096 
H 	 6.746366 	 -1.317611 	 -3.411876 
H 	 6.539948 	 -2.658025 	 -4.170614 
H 	 2.094227 	 -4.230346 	 -5.923316 
H 	 3.273285 	 -4.341755 	 -4.927513 
H 	 6.722494 	 1.249784 	 -0.180847 
H 	 -7.435161 	 -0.053050 	 0.062193 
H 	 -2.288654 	 -3.852562 	 0.627635 
H 	 -1.568736 	 -3.874351 	 2.016206 
H 	 -5.476065 	 7.358818 	 -3.866398 
H 	 -5.661358 	 -6.836612 	 -5.182771 
H 	 2.351019 	 -1.583398 	 -2.684254 
H 	 1.897538 	 -1.182449 	 -4.129904 
H 	 4.789203 	 4.871681 	 6.081069 
H 	 3.847427 	 5.951276 	 5.692002 
H 	 -3.168466 	 -5.468171 	 -5.159740 
H 	 -1.808229 	 -6.125704 	 -4.690688 
H 	 -1.028010 	 -3.796539 	 -3.852093 
H 	 -2.381032 	 -3.263817 	 -4.635394 
H 	 2.783654 	 1.924541 	 5.122714 
H 	 1.256895 	 1.514119 	 3.726747 
H 	 -2.860755 	 -0.547103 	 4.748402 
H 	 -1.974662 	 0.112825 	 3.671256 
H 	 -0.183583 	 6.501758 	 2.707126 
H 	 -1.704838 	 6.776276 	 2.617180 
H 	 5.799727 	 -4.436405 	 -4.658117 
H 	 5.177651 	 -3.583667 	 -5.750196 
H 	 6.890892 	 0.549109 	 5.666784 
H 	 -6.916820 	 1.610826 	 6.116516 
H 	 5.366043 	 -2.396549 	 5.164815 
H 	 4.349246 	 -3.661634 	 5.083283 
H 	 3.757160 	 2.416181 	 -4.406666 
H 	 3.203525 	 3.611850 	 -5.228810 
H 	 7.203534 	 -5.096242 	 -2.355022 
H 	 6.352013 	 -5.918773 	 -1.272687 
H 	 -4.518784 	 5.313565 	 -7.291283 
H 	 -3.059730 	 4.952401 	 -6.991788 
H 	 5.434523 	 -6.794920 	 -7.024954 
H 	 5.749832 	 -6.158190 	 6.469136 
H 	 5.559523 	 5.695091 	 -6.526004 
H 	 5.659400 	 6.676269 	 -5.293338 
H 	 4.140482 	 0.420155 	 -5.760100 
H 	 3.801851 	 0.113334 	 -4.248267 
H 	 1.419407 	 -3.183825 	 1.918771 
H 	 1.225354 	 -4.341504 	 1.119628 
H 	 5.199294 	 -0.900067 	 0.168748 
H 	 4.084659 	 -1.489979 	 1.165771 
H 	 -6.523862 	 -5.238135 	 7.430379 
H 	 -7.450137 	 -5.481208 	 -6.406872 
H 	 0.398640 	 -2.427854 	 -6.126615 
H 	 0.655918 	 -2.447928 	 7.199280 
H 	 -0.310859 	 -6.765613 	 -6.803795 
H 	 -0.279996 	 7.021453 	 -5.638820 
H 	 0.644621 	 0.399577 	 1.591860 
H 	 2.160926 	 -0.015284 	 2.018148 
H 	 2.301804 	 -6.453357 	 2.379246 
H 	 2.090815 	 7.121087 	 1.567352 
H 	 -2.914529 	 0.365766 	 1.331788 
H 	 -3.905761 	 1.518723 	 1.487174 
H 	 -4.037286 	 -5.958424 	 -6.831467 
H 	 -2.729056 	 -6.797069 	 -7.170648 
H 	 1.254578 	 3.564586 	 5.646158 
H 	 1.125801 	 5.101597 	 5.755796 
H 	 -1.051685 	 -5.689139 	 3.578111 
H 	 -0.256021 	 -4.482641 	 3.926879 
H 	 -6.305408 	 -2.979528 	 -3.357819 
H 	 -5.112349 	 -3.490593 	 -2.335952 
H 	 -0.370205 	 1.791612 	 -3.296908 
H 	 -1.844192 	 1.801157 	 -2.747218 
H 	 4.965377 	 5.481076 	 -1.137775 
H 	 4.441724 	 5.928129 	 0.272584 
H 	 -0.272679 	 3.083989 	 -0.009413 
H 	 -1.105675 	 3.198399 	 1.307991 
H 	 -0.218262 	 5.949123 	 0.187848 
H 	 -1.644671 	 5.756535 	 -0.363784 
H 	 6.358581 	 0.837774 	 2.984022 
H 	 5.204022 	 1.687371 	 2.386617 
H 	 6.664327 	 3.147058 	 6.936570 
H 	 6.579785 	 3.733974 	 -6.555621 
H 	 -3.996912 	 -3.619979 	 2.516147 
H 	 -5.128437 	 -4.402044 	 3.380396 
H 	 2.371398 	 4.868826 	 1.752163 
H 	 1.910295 	 5.002149 	 0.195548 
H 	 0.558150 	 -0.661180 	 5.935048 
H 	 2.045270 	 -1.261180 	 5.901856 
H 	 -5.236412 	 0.432368 	 -4.652556 
H 	 -6.552644 	 0.925314 	 -4.083123 
H 	 -0.950273 	 -0.205138 	 0.147444 
H 	 -1.107780 	 -1.338292 	 1.152595 
H 	 0.209564 	 7.471384 	 -3.318681 
H 	 -0.544542 	 7.077533 	 -1.980832 
H 	 -3.464689 	 2.462820 	 -1.293512 
H 	 -2.160206 	 3.336762 	 -1.313998 
H 	 -5.712628 	 0.095708 	 2.486064 
H 	 -6.826755 	 -1.047504 	 2.782112 
H 	 4.664522 	 -4.944031 	 -0.594997 
H 	 4.353628 	 -6.409526 	 -0.527098 
H 	 7.233647 	 -1.503600 	 6.378164 
H 	 -7.291907 	 -1.126793 	 4.807221 
H 	 -7.054331 	 -3.824936 	 4.763488 
H 	 -6.885925 	 -5.354620 	 4.569415 
H 	 -6.311142 	 -0.518281 	 -7.159749 
H 	 -7.185083 	 -1.569200 	 -6.376584 
H 	 3.337162 	 4.513120 	 4.286109 
H 	 2.300323 	 3.373391 	 3.824865 
H 	 5.977046 	 -2.812348 	 3.441320 
H 	 6.966307 	 -3.709725 	 2.752285 
H 	 6.675430 	 3.624942 	 -1.090825 
H 	 -7.400800 	 4.066038 	 0.209902 
H 	 0.020219 	 4.993216 	 -3.812187 
H 	 -1.268645 	 5.871343 	 -4.177875 
H 	 -4.499091 	 -2.549321 	 5.802104 
H 	 -4.375291 	 -2.480417 	 4.263358 
H 	 7.420863 	 4.145048 	 2.304843 
H 	 -6.824458 	 5.582114 	 2.055103 
H 	 4.076464 	 -5.641375 	 1.707501 
H 	 4.138476 	 -4.538102 	 2.834069 
H 	 -7.190394 	 -3.741532 	 0.105477 
H 	 6.775738 	 -2.869226 	 -0.763660 
H 	 4.358146 	 -0.325947 	 3.021781 
H 	 3.857291 	 -1.711276 	 3.445270 
H 	 -0.704455 	 -1.646858 	 -4.359380 
H 	 -0.111340 	 -0.421519 	 -5.125499 
H 	 1.163550 	 -3.229299 	 -1.773750 
H 	 1.579056 	 -2.719970 	 -0.360608 
H 	 0.577975 	 4.184534 	 -1.888398 
H 	 1.471603 	 3.496775 	 -3.094307 
H 	 0.239436 	 -6.429183 	 1.164016 
H 	 -0.307837 	 -5.924936 	 -0.209212 
H 	 1.537192 	 2.091071 	 0.605014 
H 	 2.092414 	 2.243974 	 -0.778636 
H 	 -0.893408 	 -2.254421 	 3.773481 
H 	 0.479354 	 -2.519822 	 4.349598 
H 	 4.274811 	 1.857847 	 4.689720 
H 	 0.366609 	 1.135984 	 -6.920701 
H 	 -2.784926 	 -6.185147 	 -0.048250 
H 	 -3.345993 	 7.267751 	 0.015794 
H 	 -7.076489 	 -6.504913 	 1.446567 
H 	 6.700938 	 -5.832133 	 0.755817 
H 	 5.724163 	 0.960243 	 -2.564580 
H 	 5.887538 	 0.889955 	 -4.011196 
H 	 2.197981 	 7.132109 	 6.462758 
H 	 2.295135 	 -7.167756 	 4.986172 
H 	 0.700533 	 2.065845 	 -5.793732 
O 	 -4.440046 	 7.219458 	 4.961602 
O 	 -7.448561 	 3.542219 	 -4.978667 
O 	 -2.646359 	 6.408224 	 -3.382966 
O 	 -6.550384 	 7.198664 	 2.881069 
O 	 -3.579534 	 5.525766 	 -0.026425 
O 	 -5.485689 	 4.849341 	 -2.082393 
O 	 -1.228419 	 3.013308 	 3.462802 
O 	 -3.473964 	 -1.529360 	 -2.108963 
O 	 -1.309250 	 4.484228 	 -6.782552 
O 	 -2.259848 	 -3.782020 	 -1.257598 
O 	 5.966980 	 -7.107699 	 4.434215 
O 	 -0.809312 	 -0.683485 	 -1.520969 
O 	 4.920285 	 -3.417690 	 -1.437642 
O 	 -5.374408 	 -0.750042 	 -0.117302 
O 	 2.435437 	 -7.391566 	 -6.533440 
O 	 -5.559619 	 -7.285238 	 -1.919056 
O 	 5.371344 	 4.377716 	 -2.661072 
O 	 -2.868017 	 1.706501 	 -6.045534 
O 	 -0.134645 	 0.734008 	 6.371235 
O 	 3.395684 	 -0.085258 	 7.518581 
O 	 0.293875 	 -5.664560 	 6.737675 
O 	 4.341604 	 -2.787798 	 -7.216514 
O 	 -5.052199 	 4.238375 	 4.700762 
O 	 -2.754832 	 -6.616734 	 3.118988 
O 	 4.430609 	 3.007167 	 1.299954 
O 	 3.187151 	 -6.987090 	 -2.525491 
O 	 0.598387 	 -4.332103 	 -3.189624 
O 	 3.073879 	 -5.333295 	 5.804261 
O 	 -4.525307 	 -4.037203 	 -5.429794 
O 	 -5.434702 	 1.360683 	 7.017062 
O 	 6.562349 	 6.825386 	 -3.622157 
O 	 -5.072948 	 1.784460 	 -0.833926 
O 	 -6.586859 	 5.907277 	 7.135854 
O 	 -4.236866 	 -1.003941 	 -4.993568 
O 	 -3.815515 	 3.497972 	 2.012203 
O 	 6.907759 	 4.010461 	 4.233127 
O 	 -2.999669 	 2.767772 	 5.792407 
O 	 3.677660 	 4.195228 	 -7.125760 
O 	 3.202655 	 1.066800 	 -1.502867 
O 	 7.175644 	 -1.903824 	 -4.091821 
O 	 2.456701 	 -4.809218 	 -5.240040 
O 	 6.595799 	 0.318758 	 -0.015883 
O 	 -2.173093 	 -3.353304 	 1.491990 
O 	 -5.869502 	 7.218135 	 -4.752360 
O 	 2.638038 	 -1.105090 	 -3.529945 
O 	 4.620272 	 5.447736 	 5.335044 
O 	 -2.710888 	 -5.778154 	 -4.341127 
O 	 -1.585169 	 -3.010731 	 -4.142036 
O 	 1.140963 	 2.066439 	 4.519866 
O 	 -1.914241 	 -0.555128 	 4.357225 
O 	 -1.036794 	 6.025813 	 2.643161 
O 	 5.079088 	 -3.722349 	 -4.779406 
O 	 7.027255 	 1.498493 	 5.800902 
O 	 4.640215 	 -2.827844 	 4.572924 
O 	 3.188938 	 3.228524 	 -4.253692 
O 	 7.078876 	 -5.963128 	 -2.009426 
O 	 -3.971228 	 4.949655 	 -6.627918 
O 	 5.279828 	 -5.961652 	 7.326415 
O 	 5.266787 	 6.570812 	 -6.232322 
O 	 4.288787 	 0.769644 	 -4.867666 
O 	 1.923067 	 -3.652720 	 1.210495 
O 	 4.359219 	 -1.355857 	 0.196450 
O 	 -6.490398 	 -5.635757 	 -6.577021 
O 	 0.717321 	 -2.985294 	 -6.887521 
O 	 -0.808399 	 -7.110256 	 -6.039158 
O 	 1.598952 	 0.691208 	 1.597107 
O 	 1.672582 	 -6.932223 	 1.802539 
O 	 -3.796017 	 0.560079 	 1.754301 
O 	 -3.595143 	 -6.506447 	 7.363462 
O 	 0.945649 	 4.273012 	 6.283804 
O 	 -0.131318 	 -5.449435 	 3.866898 
O 	 -5.761735 	 -3.726978 	 -3.060578 
O 	 -1.223919 	 1.309193 	 -3.380526 
O 	 4.995019 	 6.253543 	 -0.477739 
O 	 -1.204443 	 3.195066 	 0.307220 
O 	 -0.703753 	 5.743493 	 -0.629989 
O 	 5.441899 	 1.040572 	 3.127342 
O 	 6.478588 	 4.002048 	 7.409742 
O 	 -4.934657 	 -3.566296 	 2.825706 
O 	 2.209762 	 5.504106 	 0.988278 
O 	 1.113388 	 -1.477988 	 5.705334 
O 	 -5.817118 	 1.254841 	 -4.614917 
O 	 -1.149405 	 -0.362478 	 1.082315 
O 	 0.072157 	 -7.147246 	 -2.363244 
O 	 -2.810533 	 2.908067 	 -1.910687 
O 	 -6.555820 	 -0.131023 	 3.016967 
O 	 4.914481 	 -5.742061 	 -0.102366 
O 	 6.920380 	 -1.196084 	 5.496462 
O 	 -6.773183 	 -4.652515 	 5.262799 
O 	 -6.642544 	 -1.440825 	 -7.139228 
O 	 2.757509 	 4.204785 	 3.534079 
O 	 6.941087 	 -2.834738 	 3.218612 
O 	 -7.453364 	 3.382353 	 -0.540560 
O 	 -0.270874 	 5.666009 	 -4.519048 
O 	 -4.212681 	 -1.940646 	 5.083717 
O 	 -7.121023 	 4.775096 	 1.609494 
O 	 4.107720 	 -5.531316 	 2.692593 
O 	 -7.258576 	 -2.876712 	 -0.306793 
O 	 3.683299 	 -1.029738 	 2.769625 
O 	 0.130554 	 -1.271185 	 -4.803787 
O 	 1.465428 	 -2.440265 	 -1.292393 
O 	 0.582579 	 3.681117 	 -2.706778 
O 	 -0.559622 	 -6.008586 	 0.708453 
O 	 1.633723 	 2.806322 	 -0.101580 
O 	 -0.101525 	 -2.792481 	 3.587439 
O 	 3.719297 	 2.003726 	 5.483084 
O 	 -3.616105 	 -6.694380 	 -0.018476 
O 	 -7.316007 	 -5.635968 	 1.089583 
O 	 6.430125 	 0.801335 	 -3.238055 
O 	 2.229553 	 6.935671 	 5.540680 
O 	 0.753770 	 1.139225 	 -6.005077 
K 	 -4.304795 	 3.790265 	 -4.374872 
