333
conformation = 4
H 	 828.598427 	 -674.721391 	 -251.594278 
H 	 829.335279 	 -673.371042 	 -250.921398 
H 	 -159.815846 	 322.686120 	 -246.226612 
H 	 -158.974185 	 321.513818 	 -246.719587 
H 	 -168.960071 	 -674.507513 	 741.145275 
H 	 -169.259086 	 -673.819556 	 -245.285176 
H 	 -158.842911 	 -673.706250 	 -253.157253 
H 	 827.766850 	 -673.608758 	 -252.908773 
H 	 -170.182433 	 -676.196634 	 -256.065277 
H 	 829.367421 	 -675.786488 	 742.472043 
H 	 827.348149 	 323.464180 	 741.837049 
H 	 827.844745 	 -675.239000 	 741.220224 
H 	 -166.729776 	 321.727290 	 -253.217337 
H 	 -167.371803 	 323.184203 	 -253.489374 
H 	 829.367472 	 317.833700 	 741.840943 
H 	 -169.123867 	 317.883438 	 741.369747 
H 	 -166.958213 	 323.503879 	 -249.256908 
H 	 -167.393010 	 -675.868114 	 -247.998316 
H 	 -169.094684 	 315.661165 	 741.504618 
H 	 -167.825581 	 314.781854 	 741.788198 
H 	 -160.837870 	 -673.733583 	 -251.908956 
H 	 -161.158944 	 -672.585900 	 -252.859929 
H 	 -166.650349 	 317.575523 	 741.791173 
H 	 -167.169044 	 318.944836 	 741.082136 
H 	 -161.864197 	 315.707342 	 740.993761 
H 	 -162.113480 	 316.326165 	 742.503171 
H 	 827.503957 	 317.180645 	 743.246748 
H 	 828.523173 	 318.119903 	 -255.826955 
H 	 -162.969832 	 -673.762217 	 -247.812193 
H 	 -164.223379 	 -672.802632 	 -247.741029 
H 	 -157.980062 	 -673.238821 	 741.427545 
H 	 828.468017 	 -673.193845 	 742.145636 
H 	 -160.835943 	 -675.693307 	 -244.977604 
H 	 -161.885529 	 323.044208 	 -245.026269 
H 	 -168.763876 	 320.467893 	 -247.072952 
H 	 -170.075669 	 319.839035 	 -247.663969 
H 	 -166.063418 	 320.353482 	 -251.208013 
H 	 -167.446534 	 319.685530 	 -251.076966 
H 	 -164.203774 	 319.254889 	 -248.882843 
H 	 -163.126097 	 319.694488 	 -249.957246 
H 	 -166.520450 	 -671.511317 	 -251.061494 
H 	 -166.197421 	 314.245809 	 -249.632451 
H 	 -162.820535 	 316.949310 	 -249.291092 
H 	 -162.667326 	 315.421556 	 -249.526650 
H 	 828.813547 	 322.856555 	 -251.400509 
H 	 827.336973 	 323.241924 	 -251.989837 
H 	 -169.711828 	 -672.755636 	 -254.659592 
H 	 -169.912380 	 -673.092187 	 -253.175547 
H 	 -162.413586 	 322.356568 	 -256.036102 
H 	 -162.923598 	 322.430862 	 -254.560471 
H 	 -162.942244 	 -673.973541 	 740.880531 
H 	 -164.130569 	 -673.090454 	 740.660365 
H 	 -165.338980 	 314.410489 	 -245.723672 
H 	 -166.202124 	 313.660029 	 740.409560 
H 	 -162.800200 	 -671.901424 	 -250.289902 
H 	 -164.224907 	 -671.513411 	 -250.700259 
H 	 828.484067 	 314.854487 	 -247.951026 
H 	 828.417195 	 315.248018 	 -246.441558 
H 	 828.677535 	 320.471748 	 -250.166865 
H 	 828.393512 	 320.938377 	 -248.726118 
H 	 -160.090352 	 -673.320162 	 -244.980676 
H 	 -159.225275 	 -674.451339 	 -245.712784 
H 	 828.300366 	 319.797806 	 742.274593 
H 	 827.553554 	 321.238913 	 742.264024 
H 	 -158.207608 	 -674.713798 	 -248.686453 
H 	 -158.508138 	 -675.653261 	 -249.794309 
H 	 829.473019 	 317.149925 	 -247.029208 
H 	 829.756601 	 317.950000 	 -245.812858 
H 	 -169.855120 	 322.346361 	 -253.957516 
H 	 828.646243 	 322.724203 	 -254.146827 
H 	 -159.756894 	 322.065454 	 -252.298311 
H 	 -160.366755 	 323.380315 	 -252.092230 
H 	 -169.126224 	 321.897564 	 -249.979523 
H 	 -168.746708 	 321.921364 	 -251.497202 
H 	 -163.818472 	 322.991032 	 -249.260851 
H 	 -162.321768 	 322.513421 	 -249.142387 
H 	 -163.588120 	 319.675165 	 742.571356 
H 	 -163.475599 	 319.321657 	 741.049349 
H 	 -159.391541 	 318.329052 	 -245.736739 
H 	 -160.088096 	 316.991048 	 -245.861260 
H 	 -164.778877 	 314.808110 	 -247.960074 
H 	 -163.509679 	 314.807680 	 -246.901742 
H 	 -159.893238 	 320.509972 	 743.313890 
H 	 -159.172255 	 319.167366 	 743.524691 
H 	 -168.869020 	 316.015315 	 743.822249 
H 	 -168.213821 	 315.108481 	 -255.144491 
H 	 827.995375 	 -673.586132 	 -245.947759 
H 	 827.477999 	 -673.176712 	 -247.315650 
H 	 -163.647669 	 317.143982 	 740.706081 
H 	 -164.506466 	 317.660556 	 -245.553805 
H 	 -161.659695 	 -675.767501 	 -250.350110 
H 	 -162.738575 	 -674.993020 	 -251.013584 
H 	 -170.034924 	 313.624632 	 -246.456446 
H 	 -168.682239 	 -672.133722 	 -247.187046 
H 	 -167.521281 	 315.407828 	 -245.496006 
H 	 -168.727223 	 315.312354 	 -246.542598 
H 	 -163.806665 	 320.986930 	 -251.466338 
H 	 -165.087209 	 320.472398 	 -252.983836 
H 	 -169.064889 	 317.855375 	 -251.840724 
H 	 -169.232308 	 318.938586 	 -252.810018 
H 	 -166.711783 	 -674.500092 	 -254.082925 
H 	 -168.166737 	 -674.603202 	 -253.520844 
H 	 -160.926209 	 314.611717 	 -247.030606 
H 	 -161.582916 	 315.905820 	 -247.256157 
H 	 -159.669653 	 319.738543 	 -250.969741 
H 	 -158.399004 	 320.522609 	 -250.417814 
H 	 -161.309282 	 316.643185 	 -251.661113 
H 	 -162.360294 	 315.629201 	 -251.399589 
H 	 -163.133454 	 321.399188 	 -246.186625 
H 	 -163.470814 	 322.541558 	 -247.233858 
H 	 -158.996162 	 313.892232 	 741.476926 
H 	 -160.248492 	 -671.994982 	 742.058394 
H 	 829.125360 	 -675.741004 	 -249.158119 
H 	 -169.390337 	 -676.112911 	 -248.845419 
H 	 -160.967147 	 -673.022323 	 -249.199986 
H 	 -160.768161 	 -671.960587 	 -250.366883 
H 	 -161.455145 	 -675.422955 	 -247.969538 
H 	 -160.861049 	 -674.254184 	 -247.127902 
H 	 -162.322576 	 319.541436 	 -247.683060 
H 	 -162.834607 	 318.853295 	 -246.377334 
H 	 -165.391588 	 315.552906 	 -255.078839 
H 	 -164.778367 	 314.240771 	 -255.562514 
H 	 -161.446978 	 318.261322 	 743.345491 
H 	 -162.350732 	 317.530485 	 -255.552920 
H 	 827.434174 	 -671.949680 	 -249.382621 
H 	 -158.954479 	 -671.505786 	 -248.863007 
H 	 -165.960085 	 316.407579 	 -248.029304 
H 	 -165.552690 	 316.404332 	 -249.547306 
H 	 -166.877223 	 -672.379988 	 -248.665504 
H 	 -166.687468 	 -673.629329 	 -247.748815 
H 	 -165.794416 	 319.225962 	 -255.406304 
H 	 -164.355879 	 319.233288 	 -254.651238 
H 	 -163.954149 	 -672.551300 	 -254.644279 
H 	 -164.596649 	 -673.390004 	 -255.672418 
H 	 -169.314370 	 319.198620 	 -255.488818 
H 	 829.514312 	 320.139890 	 -255.411875 
H 	 829.475691 	 -672.134663 	 -248.637238 
H 	 -169.547975 	 -673.225515 	 -249.139623 
H 	 -165.960271 	 322.634338 	 -251.086334 
H 	 -165.416185 	 -675.860169 	 -250.766411 
H 	 -167.611273 	 -671.843361 	 -253.123702 
H 	 -166.924374 	 314.570071 	 -252.782937 
H 	 -158.000529 	 315.891285 	 -244.946555 
H 	 828.505446 	 315.699585 	 740.939746 
H 	 -167.257387 	 321.093323 	 -245.346914 
H 	 -168.583091 	 320.728733 	 740.517849 
H 	 -161.411158 	 -675.633362 	 742.153492 
H 	 -161.648061 	 -675.273938 	 743.631297 
H 	 -166.783542 	 321.786952 	 743.376261 
H 	 -167.792708 	 322.031687 	 -255.462564 
H 	 -166.587969 	 -675.499850 	 743.343550 
H 	 -167.890974 	 -675.856806 	 742.700550 
H 	 -160.217948 	 319.764148 	 -253.513920 
H 	 -161.141062 	 320.848074 	 -254.128313 
H 	 -159.521053 	 322.097560 	 -249.758925 
H 	 -159.796157 	 322.825894 	 -248.391598 
H 	 829.523808 	 315.759227 	 -254.471845 
H 	 828.928734 	 314.518274 	 -253.538020 
H 	 -164.115868 	 -675.714796 	 -254.699853 
H 	 -164.347925 	 323.514175 	 743.880376 
H 	 -165.911314 	 318.331325 	 -250.724263 
H 	 -164.665378 	 317.663080 	 -251.365062 
H 	 828.070581 	 319.616862 	 -246.352174 
H 	 -158.044051 	 320.270678 	 -245.357199 
H 	 -167.458341 	 318.575071 	 743.507035 
H 	 -167.492426 	 317.742944 	 -255.221883 
H 	 -166.774597 	 -673.816463 	 -244.838220 
H 	 -166.208776 	 -673.745165 	 741.609914 
H 	 829.744398 	 321.378022 	 741.662777 
H 	 -168.925332 	 321.807451 	 742.196366 
H 	 827.659292 	 318.956381 	 -253.303111 
H 	 -158.279774 	 317.798085 	 -254.030397 
H 	 -161.996161 	 313.896017 	 742.532609 
H 	 -162.140375 	 -672.814654 	 742.588818 
H 	 -159.083526 	 317.656630 	 -250.750348 
H 	 -159.281683 	 317.841377 	 -252.264998 
H 	 -158.591626 	 314.666518 	 -252.100177 
H 	 -158.662793 	 -671.891983 	 -251.514099 
H 	 827.696474 	 318.305428 	 -248.973794 
H 	 -158.254566 	 317.546609 	 -248.004517 
H 	 -163.143731 	 323.267968 	 -252.376946 
H 	 -164.463598 	 322.635902 	 -252.916547 
H 	 -160.372548 	 315.613983 	 -253.508917 
H 	 -159.251643 	 315.441955 	 -254.517423 
H 	 -159.946287 	 322.602220 	 742.021745 
H 	 -159.209454 	 322.874132 	 743.419419 
H 	 -166.558202 	 -676.019820 	 -245.981173 
H 	 -167.929536 	 -675.268381 	 -245.781023 
H 	 829.378070 	 316.433135 	 -251.033270 
H 	 829.030338 	 316.444434 	 -252.528959 
H 	 -158.971364 	 323.604883 	 -254.156544 
H 	 -158.226998 	 -675.450237 	 -255.026429 
H 	 -161.791013 	 313.715940 	 -254.721439 
H 	 -162.549352 	 314.177604 	 -253.281644 
H 	 -158.747655 	 315.128464 	 743.160992 
H 	 -159.858769 	 316.036617 	 742.526339 
H 	 -162.188585 	 318.805599 	 -253.621478 
H 	 -162.803243 	 317.421977 	 -253.320124 
H 	 -167.125115 	 317.483875 	 -246.184899 
H 	 -166.366102 	 318.691162 	 -246.896699 
H 	 -165.445156 	 315.778630 	 741.365593 
H 	 -164.982242 	 316.217416 	 742.790539 
H 	 -165.959835 	 322.851817 	 741.341370 
H 	 -164.878929 	 322.521271 	 -244.909752 
H 	 -166.449402 	 -672.267713 	 -255.683625 
H 	 -166.656718 	 -672.157662 	 742.861250 
H 	 -164.807686 	 321.206611 	 743.741385 
H 	 -164.242632 	 321.553193 	 742.384360 
H 	 -167.443109 	 316.922108 	 -253.357673 
H 	 -166.336284 	 316.877731 	 -252.295536 
H 	 -162.358449 	 320.431341 	 -251.574021 
H 	 -166.097735 	 320.252219 	 -248.864712 
H 	 -169.305244 	 -672.453093 	 743.002265 
H 	 -170.063825 	 -673.741338 	 743.347565 
H 	 -158.320328 	 -671.844824 	 -255.123730 
H 	 -159.380788 	 -672.421755 	 -255.981039 
H 	 -160.106765 	 319.548152 	 741.025008 
H 	 -160.938476 	 319.870858 	 -245.309140 
H 	 -164.397994 	 -673.714972 	 -250.247685 
H 	 -164.561373 	 -673.448738 	 -251.756721 
H 	 -165.193401 	 320.903600 	 -247.707162 
O 	 829.069977 	 -673.868834 	 -251.745257 
O 	 -159.147054 	 322.425819 	 -246.937308 
O 	 -169.307056 	 -674.684898 	 -244.821388 
O 	 -157.973486 	 -673.719985 	 -253.631751 
O 	 -169.967151 	 -675.616194 	 743.178853 
O 	 828.036032 	 323.784495 	 741.212069 
O 	 -167.603093 	 322.237615 	 -253.342152 
O 	 -170.003725 	 317.585321 	 741.139139 
O 	 -167.743541 	 323.499287 	 -248.607404 
O 	 -168.666223 	 315.050528 	 742.155711 
O 	 -160.425673 	 -672.947605 	 -252.304184 
O 	 -167.307547 	 318.350950 	 741.839049 
O 	 -161.733647 	 315.552343 	 741.920657 
O 	 828.096188 	 317.953721 	 743.320261 
O 	 -163.891544 	 -673.676508 	 -248.068589 
O 	 828.024804 	 -673.534913 	 741.329957 
O 	 -161.158419 	 323.453726 	 740.519160 
O 	 -169.460931 	 320.581823 	 -247.763921 
O 	 -166.633485 	 319.791982 	 -250.582541 
O 	 -163.396267 	 318.888660 	 -249.305624 
O 	 -166.008165 	 -671.611602 	 -250.225924 
O 	 -162.140327 	 316.193462 	 -249.300205 
O 	 828.324816 	 323.230235 	 -252.099060 
O 	 -169.313598 	 -672.610738 	 -253.766321 
O 	 -162.228509 	 322.043304 	 -255.137196 
O 	 -163.171466 	 -673.007920 	 740.769742 
O 	 -165.931359 	 314.588958 	 -244.958098 
O 	 -163.300498 	 313.786989 	 -250.917751 
O 	 829.064378 	 315.168466 	 -247.234726 
O 	 828.148947 	 320.271128 	 -249.376402 
O 	 -160.122648 	 -674.196868 	 -245.438549 
O 	 828.441601 	 320.754942 	 742.392691 
O 	 -157.862402 	 -674.934367 	 -249.572993 
O 	 829.375312 	 318.057119 	 -246.689331 
O 	 829.456890 	 322.350814 	 -254.639786 
O 	 -159.610454 	 322.948356 	 -252.532788 
O 	 -169.519639 	 321.697066 	 -250.891758 
O 	 -163.023809 	 323.005622 	 -248.702763 
O 	 -163.174159 	 320.007139 	 741.733907 
O 	 -159.164272 	 317.350035 	 -245.898529 
O 	 -164.321924 	 314.334591 	 -247.206945 
O 	 -160.005960 	 319.564059 	 743.230384 
O 	 -168.658954 	 315.937844 	 -255.264014 
O 	 827.550427 	 -673.968789 	 -246.727706 
O 	 -163.601313 	 317.779281 	 -245.180907 
O 	 -161.913711 	 -675.512573 	 -251.235526 
O 	 -169.195499 	 -671.948814 	 -246.356808 
O 	 -168.199379 	 315.904412 	 -246.015621 
O 	 -165.265049 	 321.068028 	 -252.237263 
O 	 -168.500127 	 318.426379 	 -252.447142 
O 	 -167.450336 	 -675.125577 	 -253.960299 
O 	 -161.502437 	 315.249996 	 -246.502548 
O 	 -159.296096 	 320.596858 	 -250.886195 
O 	 -161.998508 	 316.155409 	 -252.169684 
O 	 -163.439553 	 322.346183 	 -246.206435 
O 	 -159.581373 	 -671.929731 	 741.340249 
O 	 829.657585 	 323.744285 	 -248.565780 
O 	 -161.003703 	 -672.057035 	 -249.409095 
O 	 -161.214404 	 -674.490948 	 -248.007118 
O 	 -162.377805 	 319.677055 	 -246.729819 
O 	 -164.660913 	 315.203952 	 -255.645262 
O 	 -162.112037 	 317.580885 	 743.505984 
O 	 -158.012389 	 -671.627936 	 -248.540121 
O 	 -165.775093 	 315.839035 	 -248.774462 
O 	 -167.369213 	 -673.043928 	 -248.173241 
O 	 -164.991554 	 319.794164 	 -255.173463 
O 	 -164.825835 	 -672.950188 	 -254.856059 
O 	 829.795657 	 319.241412 	 -255.089224 
O 	 -170.180345 	 -672.557442 	 -249.480951 
O 	 -165.779959 	 323.302684 	 -250.370340 
O 	 -166.738432 	 -671.501894 	 -252.781543 
O 	 827.866414 	 315.265653 	 -244.827938 
O 	 -167.931351 	 320.366838 	 -245.289650 
O 	 -161.310969 	 -674.862817 	 742.776259 
O 	 -167.690495 	 322.112665 	 743.544977 
O 	 -167.176096 	 -675.181987 	 742.628585 
O 	 -161.073743 	 320.153215 	 -253.407020 
O 	 -160.025234 	 322.883068 	 -249.398502 
O 	 828.774429 	 315.415803 	 -253.983094 
O 	 -164.174941 	 -675.583244 	 -255.699166 
O 	 -165.548364 	 317.449093 	 -250.986581 
O 	 827.624475 	 320.469941 	 -246.117670 
O 	 -167.477407 	 318.690272 	 -255.477566 
O 	 -166.428980 	 -673.130027 	 740.875549 
O 	 -169.415030 	 321.850499 	 741.384531 
O 	 -158.302893 	 318.758307 	 -253.795426 
O 	 -161.723393 	 -672.034756 	 742.971650 
O 	 -159.784655 	 317.784225 	 -251.421004 
O 	 -158.184768 	 314.067840 	 -251.405100 
O 	 -158.100199 	 317.627603 	 -248.937088 
O 	 -163.789262 	 323.323789 	 -253.129827 
O 	 -159.407521 	 315.798584 	 -253.625362 
O 	 -159.212981 	 322.331465 	 742.608597 
O 	 -167.081130 	 -675.174070 	 -246.134725 
O 	 829.252746 	 317.093176 	 -251.740214 
O 	 -158.604629 	 323.660484 	 -255.094372 
O 	 -162.191367 	 -671.663154 	 -253.859946 
O 	 -158.943395 	 316.025394 	 742.885428 
O 	 -162.878736 	 318.156255 	 -253.945920 
O 	 -166.272356 	 317.792529 	 -246.606517 
O 	 -165.220645 	 316.583559 	 741.927931 
O 	 -165.861787 	 322.635310 	 740.393685 
O 	 -167.097276 	 -672.021896 	 743.684307 
O 	 -164.796301 	 321.962525 	 743.078314 
O 	 -166.764655 	 316.325098 	 -253.046437 
O 	 -162.906076 	 320.927559 	 -250.924479 
O 	 829.800725 	 -672.756902 	 743.294131 
O 	 -158.947006 	 -671.569315 	 -255.806993 
O 	 -160.024145 	 319.797810 	 -245.030240 
O 	 -164.392854 	 -674.170201 	 -251.097804 
O 	 -165.546723 	 320.062559 	 -248.041344 
K 	 829.247795 	 322.846316 	 -246.197490 
