333
conformation = 5
H 	 253.542807 	 -228.782751 	 0.693951 
H 	 254.241743 	 -227.440132 	 1.337071 
H 	 -234.889873 	 -231.377448 	 6.012068 
H 	 -233.982613 	 -232.529049 	 5.505087 
H 	 255.960057 	 -228.549173 	 -6.617426 
H 	 255.647971 	 -227.852063 	 6.994587 
H 	 -233.917673 	 -227.777047 	 -0.866190 
H 	 252.728539 	 -227.655450 	 -0.682610 
H 	 254.741189 	 -230.240557 	 -3.811366 
H 	 254.257204 	 -229.838587 	 -5.262999 
H 	 252.263354 	 -230.597183 	 -5.891556 
H 	 252.767671 	 -229.292820 	 -6.495620 
H 	 258.190040 	 -232.326966 	 -0.952409 
H 	 257.587101 	 -230.886277 	 -1.215042 
H 	 254.281221 	 263.732779 	 -5.909047 
H 	 255.812060 	 263.880211 	 -6.384198 
H 	 257.960025 	 -230.533796 	 2.995639 
H 	 257.520292 	 -229.868241 	 4.261351 
H 	 255.816014 	 261.618648 	 -6.226683 
H 	 257.115681 	 260.738288 	 -5.958744 
H 	 -235.934503 	 -227.781642 	 0.349045 
H 	 -236.258529 	 -226.634156 	 -0.584229 
H 	 258.277844 	 263.519239 	 -5.934126 
H 	 257.729889 	 264.891626 	 -6.675377 
H 	 -236.955611 	 261.674705 	 -6.759823 
H 	 -237.180584 	 262.248655 	 -5.248891 
H 	 252.442487 	 263.150002 	 -4.491221 
H 	 253.452821 	 264.127626 	 -3.570937 
H 	 -238.036329 	 -227.817831 	 4.418083 
H 	 -239.289880 	 -226.839917 	 4.538057 
H 	 -233.073019 	 -227.233983 	 -6.323118 
H 	 253.381624 	 -227.238117 	 -5.579310 
H 	 -235.931041 	 -229.723606 	 7.242745 
H 	 -236.942659 	 -231.005175 	 7.217400 
H 	 256.187587 	 266.439960 	 5.169755 
H 	 254.848347 	 265.783806 	 4.594043 
H 	 258.845939 	 266.312791 	 1.023675 
H 	 257.451014 	 265.602980 	 1.172928 
H 	 -239.282025 	 265.188811 	 3.345336 
H 	 -238.195348 	 265.622409 	 2.306889 
H 	 258.418833 	 259.566039 	 1.187513 
H 	 258.744658 	 260.190714 	 2.626358 
H 	 -237.900023 	 262.893242 	 2.979281 
H 	 -237.748325 	 261.330945 	 2.717841 
H 	 253.737955 	 -231.210737 	 0.902942 
H 	 252.254387 	 -230.802491 	 0.256328 
H 	 255.203615 	 -226.851052 	 -2.404456 
H 	 255.029654 	 -227.144027 	 -0.880672 
H 	 -237.501839 	 -231.704469 	 -3.787917 
H 	 -238.032476 	 -231.608340 	 -2.319615 
H 	 -238.039938 	 -227.996097 	 -6.840026 
H 	 -239.201061 	 -227.115185 	 -7.132859 
H 	 -240.420340 	 260.355768 	 6.544125 
H 	 258.749855 	 259.633327 	 -7.377551 
H 	 -237.916450 	 -225.957067 	 1.974598 
H 	 -239.305831 	 -225.567702 	 1.545766 
H 	 253.435633 	 260.796974 	 4.294035 
H 	 253.342462 	 261.206571 	 5.799944 
H 	 253.579207 	 266.403164 	 2.074265 
H 	 253.304733 	 -233.100752 	 3.527443 
H 	 -235.133721 	 -227.339173 	 7.291766 
H 	 -234.287403 	 -228.480047 	 6.539024 
H 	 253.230016 	 265.750189 	 -5.498467 
H 	 252.506414 	 -232.836993 	 -5.459814 
H 	 -233.294447 	 -228.785228 	 3.559157 
H 	 -233.589577 	 -229.715481 	 2.467638 
H 	 254.339353 	 263.089956 	 5.200310 
H 	 254.661473 	 263.900426 	 6.427418 
H 	 255.064588 	 -231.713707 	 -1.728707 
H 	 253.612015 	 -231.355385 	 -1.870097 
H 	 -234.846784 	 -231.994746 	 -0.050005 
H 	 -235.442964 	 -230.663613 	 0.117727 
H 	 255.805223 	 -232.185396 	 2.273643 
H 	 256.162917 	 -232.098959 	 0.760067 
H 	 -238.890861 	 -231.047051 	 2.975239 
H 	 -237.402211 	 -231.567782 	 3.087668 
H 	 -238.668730 	 265.651144 	 -5.223706 
H 	 -238.577167 	 265.276266 	 -6.685061 
H 	 -234.440216 	 264.263261 	 6.484341 
H 	 -235.191000 	 262.968298 	 6.386890 
H 	 -239.852565 	 260.786998 	 4.280901 
H 	 -238.574472 	 260.706759 	 5.354740 
H 	 -234.947678 	 266.482884 	 -4.410591 
H 	 -234.273838 	 265.109310 	 -4.220734 
H 	 256.085112 	 261.972753 	 -3.939651 
H 	 256.703110 	 261.034647 	 -2.885420 
H 	 252.927086 	 -227.605986 	 6.314258 
H 	 252.407800 	 -227.239538 	 4.905679 
H 	 -238.735923 	 263.121362 	 -7.060291 
H 	 -239.606057 	 263.604485 	 6.710918 
H 	 -236.728390 	 -229.793758 	 1.891699 
H 	 -237.837424 	 -229.036447 	 1.186477 
H 	 254.899232 	 259.573095 	 5.821288 
H 	 256.203038 	 -226.157608 	 5.085999 
H 	 257.403520 	 261.346091 	 6.725140 
H 	 256.179915 	 261.246734 	 5.724445 
H 	 -238.865070 	 -233.068892 	 0.775003 
H 	 -240.159135 	 266.439770 	 -0.747632 
H 	 255.870435 	 263.801243 	 0.346224 
H 	 255.708860 	 264.881586 	 -0.564414 
H 	 258.206583 	 -228.542620 	 -1.835821 
H 	 256.747030 	 -228.655635 	 -1.305384 
H 	 -235.997908 	 260.512643 	 5.236803 
H 	 -236.701569 	 261.856202 	 5.015525 
H 	 -234.774529 	 265.682221 	 1.275523 
H 	 -233.476823 	 266.433251 	 1.847083 
H 	 -236.398031 	 262.577781 	 0.569958 
H 	 -237.451086 	 261.583860 	 0.829583 
H 	 -238.231047 	 -232.648766 	 6.043728 
H 	 -238.518500 	 -231.485540 	 5.072585 
H 	 -234.059069 	 259.835993 	 -6.260939 
H 	 -235.303596 	 -226.045005 	 -5.704850 
H 	 254.068485 	 -229.783868 	 3.109223 
H 	 255.554310 	 -230.197691 	 3.422157 
H 	 -236.068874 	 -227.068146 	 3.013211 
H 	 -235.838341 	 -225.999918 	 1.904089 
H 	 -236.556522 	 -229.454760 	 4.259089 
H 	 -235.949352 	 -228.306851 	 5.114777 
H 	 -237.389925 	 265.488107 	 4.550994 
H 	 -237.900785 	 264.832458 	 5.858441 
H 	 -240.402234 	 261.547485 	 -2.822130 
H 	 -239.824663 	 260.199371 	 -3.320964 
H 	 -236.491072 	 264.239705 	 -4.382871 
H 	 -237.420213 	 263.475426 	 -3.313017 
H 	 252.380771 	 -226.017629 	 2.878219 
H 	 -234.036148 	 -225.586841 	 3.466037 
H 	 258.965817 	 262.376685 	 4.219604 
H 	 259.394352 	 262.375031 	 2.704866 
H 	 258.058803 	 -226.447740 	 3.587630 
H 	 258.249560 	 -227.688626 	 4.540295 
H 	 259.164181 	 265.169925 	 -3.164269 
H 	 -239.418959 	 265.176092 	 -2.450598 
H 	 -239.029264 	 -226.594654 	 -2.393359 
H 	 -239.676179 	 -227.455710 	 -3.431378 
H 	 255.618198 	 265.148853 	 -3.230342 
H 	 254.426449 	 266.096923 	 -3.156554 
H 	 254.410483 	 -226.176249 	 3.602260 
H 	 255.365860 	 -227.291557 	 3.116024 
H 	 258.947001 	 -231.415851 	 1.193479 
H 	 -240.488618 	 -229.939153 	 1.488745 
H 	 257.318987 	 -225.931089 	 -0.885152 
H 	 258.013012 	 260.538984 	 -0.532738 
H 	 -233.068044 	 261.868313 	 7.322039 
H 	 253.412051 	 261.656543 	 -6.832587 
H 	 257.648809 	 -232.963424 	 6.913854 
H 	 256.334981 	 -233.326163 	 -7.213416 
H 	 -236.472115 	 -229.682670 	 -5.572896 
H 	 -236.703339 	 -229.288648 	 -4.129829 
H 	 258.139721 	 -232.231422 	 -4.337609 
H 	 257.121569 	 -231.993920 	 -3.210095 
H 	 258.312829 	 -229.584235 	 -4.409062 
H 	 257.043898 	 -229.933215 	 -5.038547 
H 	 -235.266583 	 265.691876 	 -1.274074 
H 	 -236.213119 	 -233.215384 	 -1.868012 
H 	 -234.641802 	 -231.986861 	 2.480951 
H 	 -234.877809 	 -231.212149 	 3.850048 
H 	 254.428153 	 261.672801 	 -2.254377 
H 	 253.853904 	 260.492784 	 -1.266357 
H 	 -239.214083 	 -229.771590 	 -2.449422 
H 	 -239.381045 	 -230.543775 	 -3.859026 
H 	 259.022525 	 264.299434 	 1.535269 
H 	 -239.725945 	 263.611413 	 0.918051 
H 	 253.016882 	 265.583391 	 5.862815 
H 	 -233.089462 	 266.237136 	 6.888269 
H 	 257.434549 	 264.495679 	 -4.264449 
H 	 257.410751 	 263.678730 	 -2.964304 
H 	 258.184387 	 -227.893892 	 7.454582 
H 	 258.715297 	 -227.755977 	 -6.115902 
H 	 254.693991 	 -232.714804 	 -6.130643 
H 	 256.004163 	 -232.287729 	 -5.548983 
H 	 252.614071 	 264.911655 	 -1.070285 
H 	 -233.337246 	 263.759316 	 -1.759538 
H 	 -237.071586 	 259.887285 	 -5.207141 
H 	 -237.205519 	 -226.850782 	 -5.147492 
H 	 -234.123584 	 263.640729 	 1.492089 
H 	 -234.301675 	 263.808540 	 0.029319 
H 	 -233.686458 	 260.614399 	 0.166499 
H 	 -233.711971 	 -225.949550 	 0.771737 
H 	 252.605311 	 264.267446 	 3.291417 
H 	 -233.338913 	 263.541601 	 4.260060 
H 	 -238.204949 	 -230.763487 	 -0.167728 
H 	 -239.543385 	 -231.396288 	 -0.599658 
H 	 -235.426801 	 261.559528 	 -1.247684 
H 	 -234.305819 	 261.427830 	 -2.275691 
H 	 -235.022801 	 -231.449354 	 -5.717818 
H 	 -234.264940 	 -231.176605 	 -4.349410 
H 	 258.365647 	 -230.062426 	 6.248511 
H 	 256.961779 	 -229.318700 	 6.459658 
H 	 254.304275 	 262.343235 	 1.207392 
H 	 253.923804 	 262.422341 	 -0.276942 
H 	 -234.028591 	 -230.417570 	 -1.906319 
H 	 -233.352331 	 -229.485680 	 -2.770722 
H 	 -236.845994 	 259.684754 	 -2.473853 
H 	 -237.639782 	 260.134809 	 -1.050925 
H 	 -233.805329 	 261.071453 	 -4.562522 
H 	 -234.922825 	 261.981428 	 -5.215838 
H 	 -237.263578 	 264.748910 	 -1.385044 
H 	 -237.882615 	 263.351889 	 -1.064636 
H 	 257.816132 	 263.421031 	 6.057611 
H 	 258.566044 	 264.681055 	 5.335513 
H 	 -240.518385 	 261.736136 	 -6.394291 
H 	 -240.032101 	 262.161726 	 -4.946095 
H 	 258.999362 	 -231.229704 	 -6.391478 
H 	 -239.944056 	 -231.516077 	 7.367866 
H 	 258.497054 	 -226.336345 	 -3.419164 
H 	 258.277448 	 -226.221841 	 -4.880727 
H 	 -239.866626 	 -232.819052 	 -4.007752 
H 	 -239.347632 	 -232.501317 	 -5.383265 
H 	 257.485261 	 262.897184 	 -1.145404 
H 	 258.617212 	 262.828186 	 -0.078402 
H 	 -237.386345 	 266.439412 	 0.666843 
H 	 258.807450 	 266.206789 	 3.391861 
H 	 255.613396 	 -226.497705 	 -4.735667 
H 	 254.851527 	 -227.803847 	 -4.411382 
H 	 -233.390760 	 -225.909022 	 -2.863491 
H 	 -234.477011 	 -226.441496 	 -3.751328 
H 	 -235.165852 	 265.498065 	 -6.697709 
H 	 -236.047622 	 265.820054 	 6.906768 
H 	 -239.454316 	 -227.687605 	 2.001423 
H 	 -239.620320 	 -227.487881 	 0.510193 
H 	 -240.267515 	 -233.174466 	 4.565934 
O 	 253.995353 	 -227.911123 	 0.505685 
O 	 -234.218840 	 -231.620473 	 5.313373 
O 	 255.630880 	 -228.734862 	 7.413753 
O 	 -233.051660 	 -227.776612 	 -1.385595 
O 	 254.958038 	 -229.659164 	 -4.568421 
O 	 252.964507 	 -230.262755 	 -6.541867 
O 	 257.320141 	 -231.824504 	 -1.089114 
O 	 254.928869 	 263.531116 	 -6.609735 
O 	 257.181033 	 -230.553122 	 3.643456 
O 	 256.256534 	 261.007596 	 -5.598691 
O 	 -235.503247 	 -227.007427 	 -0.059146 
O 	 257.621898 	 264.297993 	 -5.912172 
O 	 -236.800803 	 261.502042 	 -5.829898 
O 	 253.023848 	 263.914009 	 -4.429823 
O 	 -238.968998 	 -227.721779 	 4.171987 
O 	 252.954117 	 -227.584363 	 -6.416819 
O 	 -236.231056 	 -230.597581 	 -7.223127 
O 	 255.469206 	 266.538592 	 4.481300 
O 	 258.300097 	 265.737873 	 1.680132 
O 	 -238.456432 	 264.842725 	 2.949157 
O 	 258.906784 	 -225.671322 	 2.037021 
O 	 -237.212575 	 262.146869 	 2.957168 
O 	 253.257697 	 -230.822547 	 0.153395 
O 	 255.617201 	 -226.662316 	 -1.509860 
O 	 -237.294598 	 -232.009003 	 -2.899698 
O 	 -238.248893 	 -227.061825 	 -6.977601 
O 	 258.995008 	 260.546070 	 7.291161 
O 	 -238.374140 	 259.722597 	 1.333260 
O 	 253.988801 	 261.105459 	 5.018721 
O 	 253.068190 	 266.224363 	 2.860101 
O 	 -235.188590 	 -228.248073 	 6.816756 
O 	 253.373384 	 -233.289899 	 -5.352744 
O 	 -232.947298 	 -228.991240 	 2.677338 
O 	 254.301919 	 263.997722 	 5.557921 
O 	 254.390964 	 -231.691522 	 -2.394644 
O 	 -234.682639 	 -231.099249 	 -0.278073 
O 	 255.410285 	 -232.348105 	 1.354440 
O 	 -238.085045 	 -231.037527 	 3.543302 
O 	 -238.248441 	 265.958437 	 -6.012728 
O 	 -234.245880 	 263.289328 	 6.354955 
O 	 -239.382153 	 260.280428 	 5.047608 
O 	 -235.075677 	 265.499634 	 -4.516133 
O 	 256.268679 	 261.874971 	 -3.009370 
O 	 252.480430 	 -228.012630 	 5.528153 
O 	 -238.676643 	 263.735252 	 7.062046 
O 	 -236.984227 	 -229.571999 	 1.013056 
O 	 255.732859 	 -225.990759 	 5.895158 
O 	 256.736335 	 261.856302 	 6.236831 
O 	 -240.344758 	 -232.986529 	 0.017867 
O 	 256.429020 	 264.373568 	 -0.189880 
O 	 257.470604 	 -229.170591 	 -1.714182 
O 	 -236.568235 	 261.201578 	 5.743695 
O 	 -234.367598 	 266.539695 	 1.364512 
O 	 -237.061900 	 262.107335 	 0.085695 
O 	 -238.506100 	 -231.709888 	 6.042253 
O 	 -234.650675 	 -225.987320 	 -6.407898 
O 	 254.581357 	 -230.298089 	 3.693071 
O 	 -236.089864 	 -226.111015 	 2.841144 
O 	 -236.284505 	 -228.536581 	 4.240309 
O 	 -237.444169 	 265.628703 	 5.524328 
O 	 -239.735026 	 261.155225 	 -3.391308 
O 	 -237.186730 	 263.527056 	 -4.244320 
O 	 -233.086919 	 -225.677591 	 3.715318 
O 	 259.149152 	 261.790428 	 3.479394 
O 	 257.562940 	 -227.101629 	 4.091296 
O 	 -240.064180 	 265.737614 	 -2.920051 
O 	 -239.903751 	 -227.002404 	 -2.606660 
O 	 254.719315 	 265.200643 	 -2.838791 
O 	 254.748436 	 -226.609968 	 2.772039 
O 	 259.152849 	 -230.750339 	 1.877056 
O 	 258.194815 	 -225.553037 	 -0.534197 
O 	 252.793648 	 261.212322 	 7.418093 
O 	 257.000472 	 266.313772 	 6.966193 
O 	 -236.391417 	 -228.911220 	 -4.972571 
O 	 257.237690 	 -231.932653 	 -4.208003 
O 	 257.746660 	 -229.231211 	 -5.120894 
O 	 -236.149404 	 266.097290 	 -1.165314 
O 	 -235.093001 	 -231.162004 	 2.865271 
O 	 253.692768 	 261.364802 	 -1.725857 
O 	 -239.251465 	 -229.630599 	 -3.451335 
O 	 259.375149 	 263.401658 	 1.256916 
O 	 252.547707 	 266.411231 	 6.122114 
O 	 257.446234 	 264.640855 	 -3.233448 
O 	 258.491378 	 -227.186256 	 -6.872776 
O 	 255.515828 	 -232.193348 	 -6.362957 
O 	 -233.371497 	 264.713835 	 -1.541100 
O 	 -236.791797 	 -226.082908 	 -4.775337 
O 	 -234.849170 	 263.733315 	 0.831500 
O 	 -233.266167 	 260.031665 	 0.842655 
O 	 -233.180117 	 263.572274 	 3.308701 
O 	 -238.858708 	 -230.730474 	 -0.878817 
O 	 -234.493857 	 261.764645 	 -1.364492 
O 	 -234.278709 	 -231.712866 	 -5.134636 
O 	 257.859320 	 -229.233972 	 6.104536 
O 	 254.186923 	 263.045847 	 0.514216 
O 	 -233.681754 	 -230.388466 	 -2.845137 
O 	 -237.270040 	 -225.713107 	 -1.613738 
O 	 -234.013832 	 261.983832 	 -4.863854 
O 	 -237.944952 	 264.099767 	 -1.694561 
O 	 258.643688 	 263.738323 	 5.644771 
O 	 -240.287185 	 262.532303 	 -5.816228 
O 	 259.061133 	 -231.411465 	 -7.343617 
O 	 257.834733 	 -226.080603 	 -4.053383 
O 	 -239.874451 	 -232.093806 	 -4.668933 
O 	 258.166399 	 262.271724 	 -0.789572 
O 	 -237.976190 	 -233.121000 	 1.312148 
O 	 254.730590 	 -226.806510 	 -4.461258 
O 	 -234.019824 	 -225.629623 	 -3.553614 
O 	 -235.099681 	 265.745639 	 7.213590 
O 	 -239.459963 	 -228.213492 	 1.146565 
O 	 259.372832 	 266.015195 	 4.218052 
K 	 254.172658 	 -231.207859 	 6.050122 
