333
conformation = 10
H 	 -4.962657 	 6.325553 	 5.041200 
H 	 -4.354822 	 -7.267416 	 5.645345 
H 	 6.576192 	 3.697216 	 -4.618442 
H 	 -7.339353 	 2.557219 	 -5.131773 
H 	 -2.588638 	 6.561915 	 -2.300441 
H 	 -2.938449 	 7.284681 	 -3.580269 
H 	 -7.343072 	 7.308580 	 3.457499 
H 	 -5.777497 	 7.452765 	 3.576283 
H 	 -3.816290 	 4.864771 	 0.490010 
H 	 -4.325611 	 5.252467 	 -0.935250 
H 	 -6.277484 	 4.488507 	 -1.603744 
H 	 -5.776164 	 5.817353 	 -2.166407 
H 	 -0.394721 	 2.782508 	 3.370179 
H 	 -0.926838 	 4.196057 	 3.110221 
H 	 -4.283782 	 -1.224111 	 -1.596972 
H 	 -2.724618 	 -0.953441 	 -2.081397 
H 	 -0.629156 	 4.572348 	 7.289927 
H 	 -1.067981 	 5.294941 	 -6.320127 
H 	 -2.743797 	 -3.270368 	 -1.919215 
H 	 -1.424028 	 -4.141018 	 -1.667180 
H 	 5.486297 	 7.311781 	 4.659062 
H 	 5.165523 	 -6.415739 	 3.733594 
H 	 -0.276689 	 -1.356064 	 -1.615917 
H 	 -0.851366 	 -0.001155 	 -2.402896 
H 	 4.464020 	 -3.196715 	 -2.488139 
H 	 4.287241 	 -2.685932 	 -0.969307 
H 	 -6.114442 	 -1.742767 	 -0.165065 
H 	 -5.095210 	 -0.700295 	 0.728017 
H 	 3.429691 	 7.281196 	 -6.212681 
H 	 2.192489 	 -6.646026 	 -6.039523 
H 	 -6.536031 	 -6.960040 	 -2.036466 
H 	 -5.179345 	 -7.028220 	 -1.277453 
H 	 5.470606 	 5.381405 	 -3.385756 
H 	 4.478419 	 4.085334 	 -3.433859 
H 	 -2.358458 	 1.563915 	 -5.454928 
H 	 -3.679177 	 0.876999 	 -5.995051 
H 	 0.281363 	 1.426519 	 5.280884 
H 	 -1.122949 	 0.659116 	 5.484966 
H 	 2.152546 	 0.269174 	 -7.280763 
H 	 3.247910 	 0.669342 	 6.637935 
H 	 -0.119573 	 -5.300240 	 5.472163 
H 	 0.213276 	 -4.695977 	 6.922041 
H 	 3.568843 	 -2.030834 	 7.296242 
H 	 3.707540 	 -3.591354 	 7.020130 
H 	 -4.824657 	 3.861259 	 5.270973 
H 	 -6.273245 	 4.294454 	 4.553939 
H 	 -3.346044 	 -6.694892 	 1.916015 
H 	 -3.499122 	 -6.939462 	 3.474606 
H 	 3.922558 	 3.384762 	 0.490814 
H 	 3.406728 	 3.495219 	 1.944993 
H 	 3.387889 	 7.127025 	 -2.503945 
H 	 2.232003 	 -6.870121 	 -2.901733 
H 	 1.042248 	 -4.532216 	 -4.075728 
H 	 0.219395 	 -5.253099 	 -3.114732 
H 	 3.489185 	 -5.756506 	 6.290967 
H 	 2.105634 	 -5.354341 	 5.834580 
H 	 -5.104190 	 -4.109672 	 -6.332756 
H 	 -5.188801 	 -3.684648 	 -4.828993 
H 	 -4.968345 	 1.494284 	 6.340897 
H 	 -5.262909 	 2.014844 	 -7.089198 
H 	 6.357363 	 -7.138278 	 -3.302738 
H 	 7.193871 	 6.663643 	 -4.071110 
H 	 -5.326959 	 0.862983 	 -1.224079 
H 	 -6.013720 	 2.229696 	 -1.128195 
H 	 -6.754384 	 6.298442 	 -7.041086 
H 	 -7.045942 	 5.372694 	 6.769012 
H 	 -4.298454 	 -1.821853 	 -5.438439 
H 	 -3.902330 	 -1.000823 	 -4.140845 
H 	 -3.459729 	 3.371851 	 2.563554 
H 	 -4.876085 	 3.701616 	 2.447725 
H 	 6.582306 	 3.034018 	 4.253849 
H 	 5.984698 	 4.469377 	 4.364831 
H 	 -2.764235 	 2.862232 	 6.537442 
H 	 -2.424608 	 3.038950 	 5.059294 
H 	 2.570196 	 4.070361 	 7.249768 
H 	 4.030532 	 3.490119 	 7.349454 
H 	 2.756474 	 0.764228 	 -0.938757 
H 	 2.847741 	 0.408114 	 -2.355774 
H 	 7.051122 	 -0.662283 	 -4.153789 
H 	 6.248776 	 -1.901855 	 -4.226841 
H 	 1.625679 	 -4.072624 	 -6.301136 
H 	 2.906159 	 -4.244731 	 -5.249904 
H 	 6.522834 	 1.591986 	 -0.090414 
H 	 7.189249 	 0.178272 	 0.098546 
H 	 -2.426651 	 -2.933815 	 0.302560 
H 	 -1.851847 	 -3.918309 	 1.409643 
H 	 -5.624623 	 -7.375782 	 -4.285049 
H 	 -6.146141 	 -7.061568 	 -5.727396 
H 	 2.696397 	 -1.728439 	 -2.788782 
H 	 1.821487 	 -1.286657 	 -3.880595 
H 	 4.749362 	 5.320411 	 6.219116 
H 	 3.602089 	 6.058257 	 5.392979 
H 	 -3.660675 	 -5.307374 	 -4.773841 
H 	 -2.389689 	 -5.925916 	 -5.532223 
H 	 -1.144265 	 -3.586569 	 -3.927147 
H 	 -2.391992 	 -3.674025 	 -4.851276 
H 	 2.607789 	 2.027913 	 5.070395 
H 	 1.284620 	 1.565139 	 3.526058 
H 	 -2.684809 	 -1.134872 	 4.576620 
H 	 -2.831413 	 0.000742 	 3.694636 
H 	 -0.360001 	 6.572835 	 2.455956 
H 	 -1.819256 	 6.452141 	 2.936728 
H 	 5.414529 	 -4.409745 	 -5.310338 
H 	 4.682584 	 -3.045198 	 -5.565135 
H 	 6.623885 	 0.742194 	 5.564744 
H 	 -6.976099 	 1.473657 	 6.148114 
H 	 5.078402 	 -2.301381 	 4.859540 
H 	 3.969445 	 -3.305857 	 5.076162 
H 	 3.188413 	 2.446110 	 -4.591096 
H 	 2.973646 	 3.657513 	 -5.463316 
H 	 -7.479438 	 -5.038503 	 -1.948322 
H 	 6.137355 	 -5.834348 	 -1.398692 
H 	 -4.504426 	 5.366282 	 -7.510274 
H 	 -2.997877 	 4.850016 	 -7.151170 
H 	 5.342285 	 -6.871562 	 7.262331 
H 	 5.620186 	 -5.786738 	 6.220078 
H 	 4.844976 	 5.651366 	 -6.374730 
H 	 5.490788 	 6.793400 	 -5.469671 
H 	 4.058372 	 0.584582 	 -6.072355 
H 	 3.552885 	 -0.032712 	 -4.760044 
H 	 1.110342 	 -3.291105 	 1.504577 
H 	 1.646781 	 -4.700218 	 0.967670 
H 	 4.968712 	 -0.641230 	 -0.044513 
H 	 4.028445 	 -1.413833 	 0.999668 
H 	 -6.144547 	 -5.832325 	 7.184278 
H 	 -7.497510 	 -5.421420 	 -7.030158 
H 	 0.397975 	 -2.469641 	 -6.366378 
H 	 0.860787 	 -2.497869 	 7.008450 
H 	 -0.468875 	 -6.268076 	 -7.036341 
H 	 -0.322534 	 7.428579 	 -6.028364 
H 	 0.645282 	 0.266023 	 1.130683 
H 	 2.052196 	 0.258911 	 1.775895 
H 	 2.408950 	 -6.384179 	 1.915933 
H 	 1.763718 	 -7.296041 	 0.847790 
H 	 -2.918063 	 0.241416 	 1.089128 
H 	 -4.147379 	 1.196788 	 1.158880 
H 	 -4.121601 	 -5.974275 	 -7.039780 
H 	 -3.201136 	 -7.100963 	 -7.481219 
H 	 0.377100 	 3.691026 	 5.513806 
H 	 0.963005 	 5.139483 	 5.766988 
H 	 -1.193895 	 -5.765869 	 3.409622 
H 	 -0.515417 	 -4.345734 	 3.751469 
H 	 -6.486984 	 -3.008014 	 -3.254702 
H 	 -5.182543 	 -3.241297 	 -2.590540 
H 	 -0.919811 	 2.139157 	 -3.671882 
H 	 -2.202462 	 1.774134 	 -2.931039 
H 	 4.993930 	 5.425373 	 -1.258651 
H 	 4.761626 	 5.867165 	 0.160024 
H 	 -0.392505 	 2.907495 	 -0.005299 
H 	 -1.448537 	 3.144828 	 1.059396 
H 	 -0.262006 	 5.487341 	 -0.115721 
H 	 -1.498574 	 5.158378 	 -0.739771 
H 	 6.213463 	 0.768936 	 3.008420 
H 	 5.226417 	 1.867913 	 2.437003 
H 	 6.709149 	 3.099395 	 6.772419 
H 	 6.563562 	 3.896870 	 -6.786156 
H 	 -4.111498 	 -3.288463 	 1.986350 
H 	 -4.686057 	 -4.346808 	 3.029456 
H 	 2.200026 	 5.322911 	 1.805910 
H 	 2.118142 	 4.575600 	 0.462775 
H 	 0.467326 	 -0.561577 	 5.839109 
H 	 1.732044 	 -1.290025 	 5.266885 
H 	 -5.518809 	 0.705162 	 -4.778093 
H 	 -6.522086 	 1.344402 	 -3.699815 
H 	 -1.157387 	 -0.416977 	 0.039077 
H 	 -1.179787 	 -1.210600 	 1.342094 
H 	 -0.337850 	 7.154823 	 -3.137408 
H 	 0.154908 	 7.399278 	 -1.775379 
H 	 -3.833106 	 2.348726 	 -1.893835 
H 	 -2.516778 	 2.770412 	 -1.213709 
H 	 -5.949353 	 0.008477 	 3.170424 
H 	 -6.766921 	 -1.122337 	 2.562247 
H 	 4.373233 	 -4.987267 	 -0.899899 
H 	 4.228268 	 -6.646983 	 -0.859023 
H 	 7.348680 	 -1.220702 	 5.794555 
H 	 7.206647 	 -1.063903 	 4.365339 
H 	 -7.169104 	 -4.294427 	 4.483089 
H 	 -7.129021 	 -5.730483 	 5.098776 
H 	 -5.970386 	 -0.610764 	 -7.307899 
H 	 -6.823904 	 -1.309499 	 -6.311689 
H 	 3.275798 	 4.370507 	 4.084922 
H 	 1.900319 	 3.723930 	 3.782828 
H 	 6.020154 	 -3.342054 	 3.071671 
H 	 7.166815 	 -3.417812 	 2.026381 
H 	 6.426907 	 3.656637 	 -1.407049 
H 	 7.201834 	 3.960711 	 -0.032551 
H 	 -0.198086 	 5.048431 	 -4.363810 
H 	 -1.652267 	 5.775308 	 -4.141050 
H 	 -4.256302 	 -2.579957 	 5.480663 
H 	 -4.659231 	 -2.402644 	 4.044485 
H 	 -7.466837 	 4.691181 	 2.367487 
H 	 -6.856257 	 5.660593 	 1.514215 
H 	 4.603388 	 -5.186247 	 1.848502 
H 	 3.808009 	 -4.768659 	 3.183300 
H 	 -7.250879 	 -3.828410 	 -0.233180 
H 	 6.527050 	 -2.930421 	 -0.912645 
H 	 4.183126 	 -0.150819 	 2.884830 
H 	 3.559617 	 -1.572908 	 3.240718 
H 	 -0.729533 	 -1.490569 	 -4.568162 
H 	 0.016851 	 -0.186899 	 -5.285362 
H 	 0.937811 	 -3.137672 	 -2.098598 
H 	 1.447432 	 -2.753125 	 -0.631358 
H 	 0.485174 	 3.836327 	 -2.071635 
H 	 1.470482 	 3.607547 	 -3.205737 
H 	 -0.010318 	 -6.165960 	 0.925782 
H 	 -0.259394 	 -6.039652 	 -0.606637 
H 	 1.600675 	 2.303499 	 0.307835 
H 	 2.060267 	 2.594713 	 -1.124060 
H 	 -1.056705 	 -1.986163 	 3.116949 
H 	 0.091854 	 -2.082989 	 4.168058 
H 	 4.129330 	 1.629040 	 4.947443 
H 	 0.242343 	 1.312852 	 -7.179293 
H 	 -2.946352 	 -6.276685 	 -0.426405 
H 	 -3.713580 	 7.292468 	 -0.126153 
H 	 -6.835431 	 -5.726793 	 1.448100 
H 	 6.917567 	 -6.220806 	 0.505100 
H 	 6.299389 	 0.617667 	 -2.412073 
H 	 5.377358 	 0.919045 	 -3.745283 
H 	 2.012705 	 7.486700 	 6.282457 
H 	 1.845116 	 -7.279810 	 4.814596 
H 	 1.183960 	 1.922684 	 -6.002304 
O 	 -4.559137 	 7.201156 	 4.800062 
O 	 7.228746 	 3.490654 	 -5.290189 
O 	 -2.907732 	 6.368516 	 -3.214177 
O 	 -6.512589 	 7.317867 	 2.903734 
O 	 -3.597781 	 5.454301 	 -0.271741 
O 	 -5.588471 	 4.843535 	 -2.250625 
O 	 -1.235916 	 3.261399 	 3.208685 
O 	 -3.616407 	 -1.372003 	 -2.315630 
O 	 -1.371897 	 4.548111 	 -6.961717 
O 	 -2.302136 	 -3.879834 	 -1.310281 
O 	 5.937652 	 -6.817781 	 4.229035 
O 	 -0.927249 	 -0.604651 	 -1.619113 
O 	 4.654736 	 -3.395059 	 -1.535385 
O 	 -5.526453 	 -0.966926 	 -0.138173 
O 	 2.470047 	 7.389843 	 -6.446540 
O 	 -5.597280 	 -7.378798 	 -2.117421 
O 	 5.221240 	 4.506247 	 -2.917728 
O 	 -3.078537 	 1.651344 	 -6.130588 
O 	 -0.245415 	 0.835643 	 5.991168 
O 	 3.009837 	 -0.047548 	 7.247995 
O 	 0.339200 	 -5.481346 	 6.349138 
O 	 4.233176 	 -2.745595 	 7.260885 
O 	 -5.288725 	 4.278469 	 4.449716 
O 	 -2.931299 	 -6.461768 	 2.791356 
O 	 4.160879 	 3.091876 	 1.379680 
O 	 3.192942 	 -6.863348 	 -2.680562 
O 	 0.441168 	 -4.340858 	 -3.314290 
O 	 3.073267 	 -5.193335 	 5.628445 
O 	 -4.566968 	 -3.807916 	 -5.580992 
O 	 -5.496045 	 1.331697 	 7.137444 
O 	 6.267489 	 6.856000 	 -3.780968 
O 	 -5.172614 	 1.819258 	 -1.053142 
O 	 -6.416530 	 6.101866 	 6.971267 
O 	 -4.252099 	 -0.910554 	 -5.054691 
O 	 -4.154656 	 3.422656 	 1.891661 
O 	 6.767308 	 4.010053 	 4.021089 
O 	 -3.136079 	 2.762431 	 5.645548 
O 	 3.377848 	 4.075361 	 -7.068470 
O 	 3.197751 	 1.063530 	 -1.718401 
O 	 7.188142 	 -1.621406 	 -4.246418 
O 	 2.079927 	 -4.623226 	 -5.553385 
O 	 6.373886 	 0.586380 	 -0.219028 
O 	 -2.283390 	 -3.036240 	 1.293679 
O 	 -6.066970 	 7.100368 	 -5.069282 
O 	 2.765858 	 -1.155039 	 -3.552944 
O 	 4.464050 	 5.521530 	 5.303164 
O 	 -2.817078 	 -5.778341 	 -4.703181 
O 	 -1.805259 	 -3.036098 	 -4.365686 
O 	 1.095318 	 2.111886 	 4.317879 
O 	 -2.118757 	 -0.525517 	 4.113637 
O 	 -1.089183 	 5.939175 	 2.574650 
O 	 4.891450 	 -3.694959 	 -4.869432 
O 	 7.085070 	 1.636226 	 5.660150 
O 	 4.395854 	 -2.789391 	 4.385889 
O 	 2.950024 	 3.385120 	 -4.563573 
O 	 6.803025 	 -5.796661 	 -2.114852 
O 	 -3.971703 	 4.813819 	 -6.899766 
O 	 5.340693 	 -5.911588 	 7.135522 
O 	 5.167038 	 6.573602 	 -6.370796 
O 	 4.013253 	 0.735101 	 -5.076268 
O 	 1.713057 	 -3.738217 	 0.906511 
O 	 4.260346 	 -1.373781 	 0.046014 
O 	 -6.541115 	 -5.474468 	 -6.883551 
O 	 0.594050 	 -3.105052 	 -7.123177 
O 	 -0.981706 	 -6.910509 	 -6.493104 
O 	 1.384534 	 0.833123 	 1.377924 
O 	 1.538731 	 -6.800700 	 1.686050 
O 	 -3.837894 	 0.318108 	 1.455121 
O 	 -3.801238 	 -6.409318 	 7.071769 
O 	 0.608830 	 4.348100 	 6.169236 
O 	 -0.352269 	 -5.350701 	 3.755261 
O 	 -5.759533 	 -3.686899 	 -3.191960 
O 	 -1.546456 	 1.412307 	 -3.630559 
O 	 5.046508 	 6.193779 	 -0.677131 
O 	 -1.314539 	 3.176758 	 0.084554 
O 	 -0.811317 	 5.870843 	 -0.825660 
O 	 5.295714 	 1.192538 	 3.117800 
O 	 6.362768 	 3.946763 	 7.176954 
O 	 -4.874122 	 -3.534069 	 2.580090 
O 	 2.191481 	 5.474968 	 0.840622 
O 	 0.820304 	 -1.492197 	 5.541951 
O 	 -6.007248 	 1.503299 	 -4.499611 
O 	 -1.110345 	 -0.258066 	 1.049167 
O 	 -0.068155 	 -6.990218 	 -2.575440 
O 	 -3.032445 	 2.916572 	 -2.067705 
O 	 -6.814656 	 -0.175042 	 2.760047 
O 	 4.663933 	 -5.873213 	 -0.474826 
O 	 6.611320 	 -1.164117 	 5.129550 
O 	 -6.729197 	 -4.847551 	 5.133701 
O 	 -6.640278 	 -1.331046 	 -7.302928 
O 	 2.592438 	 4.366655 	 3.415505 
O 	 6.937932 	 -3.110917 	 2.941941 
O 	 7.178653 	 3.395389 	 -0.834884 
O 	 -0.672675 	 5.857162 	 -4.517816 
O 	 -4.356761 	 -1.851426 	 4.813313 
O 	 -7.139753 	 4.716728 	 1.449870 
O 	 4.169496 	 -5.508648 	 2.674572 
O 	 -7.461009 	 -2.901610 	 -0.568692 
O 	 3.511155 	 -0.805852 	 2.601376 
O 	 0.078808 	 -1.163046 	 -4.959662 
O 	 1.168645 	 -2.366886 	 -1.516141 
O 	 0.506208 	 3.695591 	 -3.033820 
O 	 -0.712832 	 -5.887348 	 0.257136 
O 	 1.566651 	 3.001550 	 -0.371671 
O 	 -0.380523 	 -2.628248 	 3.512200 
O 	 3.474807 	 1.984065 	 5.586703 
O 	 -3.817758 	 -6.604392 	 -0.173786 
O 	 -7.470052 	 -5.438338 	 0.745909 
O 	 6.343172 	 0.845641 	 -3.397070 
O 	 1.995743 	 6.900586 	 5.435000 
O 	 0.808642 	 1.120493 	 -6.377300 
K 	 -4.382336 	 3.889961 	 -4.558629 
