333
conformation = 4
H 	 6.202398 	 -6.154835 	 -3.100514 
H 	 6.939251 	 -4.804487 	 -2.427634 
H 	 2.888404 	 6.152397 	 2.267152 
H 	 3.730066 	 4.980095 	 1.774177 
H 	 -6.255820 	 -5.940957 	 4.538760 
H 	 -6.554836 	 -5.253000 	 3.208588 
H 	 3.861339 	 -5.139694 	 -4.663489 
H 	 5.370821 	 -5.042202 	 -4.415009 
H 	 -7.478182 	 -7.630079 	 -7.571513 
H 	 6.971392 	 -7.219932 	 5.865528 
H 	 4.952121 	 6.930457 	 5.230534 
H 	 5.448716 	 -6.672444 	 4.613709 
H 	 -4.025526 	 5.193567 	 -4.723573 
H 	 -4.667553 	 6.650480 	 -4.995610 
H 	 6.971443 	 1.299977 	 5.234428 
H 	 -6.419616 	 1.349715 	 4.763232 
H 	 -4.253963 	 6.970156 	 -0.763144 
H 	 -4.688760 	 -7.301558 	 0.495448 
H 	 -6.390433 	 -0.872558 	 4.898103 
H 	 -5.121330 	 -1.751869 	 5.181683 
H 	 1.866380 	 -5.167027 	 -3.415192 
H 	 1.545306 	 -4.019344 	 -4.366165 
H 	 -3.946099 	 1.041800 	 5.184658 
H 	 -4.464794 	 2.411113 	 4.475621 
H 	 0.840053 	 -0.826381 	 4.387246 
H 	 0.590771 	 -0.207558 	 5.896656 
H 	 5.107928 	 0.646922 	 6.640233 
H 	 6.127144 	 1.586179 	 -7.333191 
H 	 -0.265581 	 -5.195662 	 0.681571 
H 	 -1.519128 	 -4.236076 	 0.752735 
H 	 4.724189 	 -4.672265 	 4.821030 
H 	 6.071989 	 -4.627289 	 5.539121 
H 	 1.868308 	 -7.126751 	 3.516160 
H 	 0.818722 	 6.510485 	 3.467495 
H 	 -6.059626 	 3.934170 	 1.420812 
H 	 -7.371419 	 3.305312 	 0.829795 
H 	 -3.359167 	 3.819759 	 -2.714249 
H 	 -4.742283 	 3.151807 	 -2.583202 
H 	 -1.499524 	 2.721166 	 -0.389079 
H 	 -0.421847 	 3.160765 	 -1.463481 
H 	 -3.816199 	 -2.944761 	 -2.567730 
H 	 -3.493171 	 -2.287914 	 -1.138687 
H 	 -0.116284 	 0.415587 	 -0.797328 
H 	 0.036924 	 -1.112167 	 -1.032886 
H 	 6.417518 	 6.322832 	 -2.906745 
H 	 4.940944 	 6.708201 	 -3.496073 
H 	 -7.007578 	 -4.189080 	 -6.165828 
H 	 -7.208129 	 -4.525631 	 -4.681783 
H 	 0.290664 	 5.822845 	 -7.542338 
H 	 -0.219348 	 5.897139 	 -6.066707 
H 	 -0.237993 	 -5.406986 	 4.274016 
H 	 -1.426318 	 -4.523899 	 4.053850 
H 	 -2.634729 	 -2.123235 	 2.770092 
H 	 -3.497874 	 -2.873695 	 3.803045 
H 	 -0.095950 	 -3.334868 	 -1.796138 
H 	 -1.520657 	 -2.946856 	 -2.206495 
H 	 6.088038 	 -1.679236 	 0.542738 
H 	 6.021166 	 -1.285706 	 2.052206 
H 	 6.281506 	 3.938024 	 -1.673101 
H 	 5.997484 	 4.404653 	 -0.232354 
H 	 2.613898 	 -4.753606 	 3.513089 
H 	 3.478975 	 -5.884783 	 2.780981 
H 	 5.904337 	 3.264082 	 5.668078 
H 	 5.157525 	 4.705190 	 5.657509 
H 	 4.496643 	 -6.147242 	 -0.192689 
H 	 4.196112 	 -7.086705 	 -1.300545 
H 	 7.076990 	 0.616202 	 1.464556 
H 	 7.360573 	 1.416276 	 2.680906 
H 	 -7.150870 	 5.812637 	 -5.463752 
H 	 6.250214 	 6.190480 	 -5.653063 
H 	 2.947356 	 5.531730 	 -3.804547 
H 	 2.337496 	 6.846591 	 -3.598466 
H 	 -6.421974 	 5.363841 	 -1.485759 
H 	 -6.042458 	 5.387640 	 -3.003438 
H 	 -1.114222 	 6.457309 	 -0.767087 
H 	 0.382483 	 5.979697 	 -0.648623 
H 	 -0.883869 	 3.141441 	 5.964841 
H 	 -0.771349 	 2.787934 	 4.442834 
H 	 3.312709 	 1.795329 	 2.757025 
H 	 2.616154 	 0.457324 	 2.632504 
H 	 -2.074626 	 -1.725614 	 0.533690 
H 	 -0.805428 	 -1.726043 	 1.592022 
H 	 2.811012 	 3.976248 	 6.707375 
H 	 3.531995 	 2.633643 	 6.918176 
H 	 -6.164770 	 -0.518409 	 7.215734 
H 	 -5.509571 	 -1.425242 	 -6.650727 
H 	 5.599346 	 -5.019577 	 2.546005 
H 	 5.081971 	 -4.610157 	 1.178114 
H 	 -0.943419 	 0.610259 	 4.099566 
H 	 -1.802216 	 1.126832 	 2.939959 
H 	 1.044555 	 -7.200946 	 -1.856346 
H 	 -0.034324 	 -6.426464 	 -2.519820 
H 	 -7.330674 	 -2.909091 	 2.037318 
H 	 -5.977989 	 -3.567167 	 1.306718 
H 	 -4.817031 	 -1.125895 	 2.997758 
H 	 -6.022973 	 -1.221369 	 1.951166 
H 	 -1.102414 	 4.453207 	 -2.972574 
H 	 -2.382959 	 3.938675 	 -4.490072 
H 	 -6.360639 	 1.321651 	 -3.346960 
H 	 -6.528058 	 2.404863 	 -4.316254 
H 	 -4.007533 	 -5.933536 	 -5.589161 
H 	 -5.462487 	 -6.036646 	 -5.027080 
H 	 1.778041 	 -1.922006 	 1.463158 
H 	 1.121334 	 -0.627903 	 1.237607 
H 	 3.034598 	 3.204820 	 -2.475977 
H 	 4.305247 	 3.988886 	 -1.924050 
H 	 1.394968 	 0.109462 	 -3.167349 
H 	 0.343956 	 -0.904522 	 -2.905825 
H 	 -0.429204 	 4.865465 	 2.307139 
H 	 -0.766564 	 6.007835 	 1.259906 
H 	 3.708088 	 -2.641491 	 4.870411 
H 	 2.455758 	 -3.428427 	 5.451879 
H 	 6.729331 	 -7.174449 	 -0.664355 
H 	 -6.686087 	 -7.546355 	 -0.351655 
H 	 1.737103 	 -4.455767 	 -0.706222 
H 	 1.936089 	 -3.394031 	 -1.873119 
H 	 1.249105 	 -6.856399 	 0.524226 
H 	 1.843201 	 -5.687628 	 1.365862 
H 	 0.381674 	 3.007712 	 0.810704 
H 	 -0.130357 	 2.319572 	 2.116430 
H 	 -2.687338 	 -0.980817 	 -6.585075 
H 	 -2.074117 	 -2.292953 	 -7.068750 
H 	 1.257272 	 1.727599 	 6.738976 
H 	 0.353518 	 0.996762 	 -7.059156 
H 	 5.038145 	 -3.383124 	 -0.888857 
H 	 3.749771 	 -2.939230 	 -0.369243 
H 	 -3.255835 	 -0.126144 	 0.464460 
H 	 -2.848440 	 -0.129391 	 -1.053542 
H 	 -4.172973 	 -3.813432 	 -0.171740 
H 	 -3.983218 	 -5.062773 	 0.744949 
H 	 -3.090165 	 2.692239 	 -6.912540 
H 	 -1.651629 	 2.699565 	 -6.157474 
H 	 -1.249898 	 -3.984744 	 -6.150515 
H 	 -1.892399 	 -4.823448 	 -7.178654 
H 	 -6.610120 	 2.664897 	 -6.995054 
H 	 7.118283 	 3.606167 	 -6.918111 
H 	 7.079662 	 -3.568107 	 -0.143474 
H 	 -6.843725 	 -4.658959 	 -0.645859 
H 	 -3.256021 	 6.100615 	 -2.592570 
H 	 -2.711935 	 -7.293614 	 -2.272647 
H 	 -4.907023 	 -3.276806 	 -4.629938 
H 	 -4.220123 	 -1.963652 	 -4.289173 
H 	 4.703721 	 -0.642439 	 3.547209 
H 	 6.109417 	 -0.834138 	 4.333231 
H 	 -4.553137 	 4.559600 	 3.146850 
H 	 -5.878841 	 4.195010 	 3.911334 
H 	 1.293093 	 -7.066806 	 5.546977 
H 	 1.056190 	 -6.707383 	 7.024782 
H 	 -4.079291 	 5.253229 	 6.769746 
H 	 -5.088458 	 5.497964 	 -6.968799 
H 	 -3.883718 	 -6.933295 	 6.737035 
H 	 -5.186723 	 -7.290251 	 6.094035 
H 	 2.486302 	 3.230424 	 -5.020156 
H 	 1.563188 	 4.314351 	 -5.634549 
H 	 3.183197 	 5.563837 	 -1.265161 
H 	 2.908093 	 6.292171 	 0.102166 
H 	 7.127779 	 -0.774496 	 -5.978081 
H 	 6.532706 	 -2.015449 	 -5.044256 
H 	 -1.411618 	 -7.148240 	 -6.206089 
H 	 -1.643674 	 6.980452 	 7.273861 
H 	 -3.207064 	 1.797601 	 -2.230499 
H 	 -1.961128 	 1.129357 	 -2.871298 
H 	 5.674552 	 3.083139 	 2.141590 
H 	 4.660200 	 3.736955 	 3.136565 
H 	 -4.754090 	 2.041348 	 6.900521 
H 	 -4.788176 	 1.209221 	 -6.728119 
H 	 -4.070347 	 -5.249907 	 3.655544 
H 	 -3.504526 	 -5.178609 	 5.003399 
H 	 7.348369 	 4.844299 	 5.056262 
H 	 -6.221081 	 5.273728 	 5.589851 
H 	 5.263263 	 2.422658 	 -4.809347 
H 	 4.424477 	 1.264362 	 -5.536633 
H 	 0.708089 	 -2.637706 	 5.926094 
H 	 0.563875 	 -4.248098 	 5.982303 
H 	 3.620725 	 1.122907 	 -2.256584 
H 	 3.422567 	 1.307654 	 -3.771234 
H 	 4.112624 	 -1.867205 	 -3.606413 
H 	 4.041457 	 -3.325427 	 -3.020335 
H 	 5.300445 	 1.771705 	 -0.480030 
H 	 4.449685 	 1.012886 	 0.489247 
H 	 -0.439481 	 6.734245 	 -3.883182 
H 	 -1.759348 	 6.102179 	 -4.422783 
H 	 2.331702 	 -0.919740 	 -5.015153 
H 	 3.452608 	 -1.091768 	 -6.023659 
H 	 2.757963 	 6.068497 	 5.415230 
H 	 3.494796 	 6.340409 	 6.812904 
H 	 -3.853952 	 -7.453265 	 2.512591 
H 	 -5.225286 	 -6.701826 	 2.712741 
H 	 6.982042 	 -0.100589 	 -2.539506 
H 	 6.634310 	 -0.089289 	 -4.035195 
H 	 3.732886 	 7.071159 	 -5.662780 
H 	 4.477253 	 -6.883681 	 -6.532665 
H 	 0.913237 	 -2.817783 	 -6.227675 
H 	 0.154898 	 -2.356119 	 -4.787880 
H 	 3.956595 	 -1.405260 	 6.554478 
H 	 2.845482 	 -0.497106 	 5.919824 
H 	 0.515665 	 2.271876 	 -5.127714 
H 	 -0.098993 	 0.888254 	 -4.826360 
H 	 -4.420865 	 0.950152 	 2.308865 
H 	 -3.661852 	 2.157438 	 1.597065 
H 	 -2.740906 	 -0.755093 	 4.759078 
H 	 -2.277992 	 -0.316307 	 6.184024 
H 	 -3.255585 	 6.318094 	 4.734855 
H 	 -2.174679 	 5.987547 	 3.584012 
H 	 -3.745152 	 -3.701157 	 -7.189861 
H 	 -3.952468 	 -3.591106 	 6.254735 
H 	 -2.103436 	 4.672888 	 7.134870 
H 	 -1.538382 	 5.019470 	 5.777845 
H 	 -4.738859 	 0.388385 	 -4.863908 
H 	 -3.632034 	 0.344008 	 -3.801772 
H 	 0.345802 	 3.897618 	 -3.080256 
H 	 -3.393484 	 3.718495 	 -0.370948 
H 	 -6.600993 	 -3.886537 	 6.395750 
H 	 -7.359575 	 -5.174782 	 6.741051 
H 	 4.383922 	 -3.278268 	 -6.629966 
H 	 3.323462 	 -3.855199 	 -7.487275 
H 	 2.597485 	 3.014429 	 4.418493 
H 	 1.765775 	 3.337135 	 3.184625 
H 	 -1.693744 	 -5.148416 	 -1.753921 
H 	 -1.857123 	 -4.882182 	 -3.262957 
H 	 -2.489150 	 4.369877 	 0.786602 
O 	 6.673949 	 -5.302278 	 -3.251493 
O 	 3.557196 	 5.892096 	 1.556456 
O 	 -6.602806 	 -6.118343 	 3.672376 
O 	 4.730764 	 -5.153430 	 -5.137987 
O 	 -7.262901 	 -7.049639 	 6.572338 
O 	 5.640003 	 7.250771 	 4.605554 
O 	 -4.898843 	 5.703892 	 -4.848388 
O 	 -7.299475 	 1.051598 	 4.532624 
O 	 -5.039291 	 6.965563 	 -0.113640 
O 	 -5.961972 	 -1.483195 	 5.549196 
O 	 2.278578 	 -4.381049 	 -3.810420 
O 	 -4.603297 	 1.817227 	 5.232534 
O 	 0.970603 	 -0.981380 	 5.314142 
O 	 5.700159 	 1.419998 	 6.713746 
O 	 -1.187294 	 -5.109953 	 0.425175 
O 	 5.628775 	 -4.968357 	 4.723442 
O 	 1.545832 	 6.920002 	 3.912645 
O 	 -6.756680 	 4.048099 	 0.729843 
O 	 -3.929235 	 3.258259 	 -2.088777 
O 	 -0.692017 	 2.354937 	 -0.811860 
O 	 -3.303915 	 -3.045046 	 -1.732160 
O 	 0.563923 	 -0.340261 	 -0.806441 
O 	 5.928787 	 6.696512 	 -3.605296 
O 	 -6.609347 	 -4.044182 	 -5.272557 
O 	 0.475741 	 5.509581 	 -6.643432 
O 	 -0.467216 	 -4.441365 	 4.163227 
O 	 -3.227109 	 -1.944765 	 3.535666 
O 	 -0.596248 	 -2.746734 	 -2.423987 
O 	 6.668350 	 -1.365258 	 1.259038 
O 	 5.752918 	 3.737405 	 -0.882638 
O 	 2.581602 	 -5.630313 	 3.055215 
O 	 6.045572 	 4.221218 	 5.786176 
O 	 4.841848 	 -6.367811 	 -1.079229 
O 	 6.979283 	 1.523396 	 1.804433 
O 	 7.060861 	 5.817091 	 -6.146022 
O 	 3.093797 	 6.414633 	 -4.039024 
O 	 -6.815389 	 5.163342 	 -2.397994 
O 	 -0.319559 	 6.471899 	 -0.208999 
O 	 -0.469909 	 3.473416 	 5.127392 
O 	 3.539978 	 0.816311 	 2.595235 
O 	 -1.617673 	 -2.199132 	 1.286819 
O 	 2.698290 	 3.030336 	 6.623869 
O 	 -5.954704 	 -0.595880 	 -6.770250 
O 	 5.154399 	 -5.402233 	 1.766058 
O 	 -0.897063 	 1.245558 	 3.312857 
O 	 0.790539 	 -6.946017 	 -2.741762 
O 	 -6.491248 	 -3.382258 	 2.136956 
O 	 -5.495129 	 -0.629312 	 2.478143 
O 	 -2.560799 	 4.534304 	 -3.743499 
O 	 -5.795876 	 1.892656 	 -3.953378 
O 	 -4.746086 	 -6.559022 	 -5.466535 
O 	 1.201814 	 -1.283727 	 1.991216 
O 	 3.408155 	 4.063135 	 -2.392431 
O 	 0.705742 	 -0.378314 	 -3.675920 
O 	 -0.735303 	 5.812460 	 2.287329 
O 	 3.122877 	 -3.363176 	 4.733734 
O 	 7.261556 	 7.210562 	 -0.072016 
O 	 1.700548 	 -3.490479 	 -0.915330 
O 	 1.489846 	 -5.924393 	 0.486646 
O 	 0.326445 	 3.143332 	 1.763945 
O 	 -1.956663 	 -1.329772 	 -7.151498 
O 	 0.592213 	 1.047162 	 6.899469 
O 	 4.691861 	 -3.061380 	 -0.046357 
O 	 -3.070843 	 -0.694688 	 -0.280698 
O 	 -4.664963 	 -4.477372 	 0.320523 
O 	 -2.287304 	 3.260441 	 -6.679699 
O 	 -2.121585 	 -4.383633 	 -6.362295 
O 	 7.399628 	 2.707688 	 -6.595460 
O 	 -7.476094 	 -3.990886 	 -0.987187 
O 	 -3.075708 	 6.768960 	 -1.876576 
O 	 -4.034182 	 -2.935338 	 -4.287779 
O 	 5.470386 	 -1.268070 	 3.665826 
O 	 -5.227100 	 3.833115 	 3.204114 
O 	 1.393282 	 -6.296262 	 6.169744 
O 	 -4.986245 	 5.578942 	 6.938462 
O 	 -4.471846 	 -6.615431 	 6.022070 
O 	 1.630508 	 3.619492 	 -4.913256 
O 	 2.679017 	 6.349345 	 -0.904738 
O 	 6.378400 	 -1.117920 	 -5.489330 
O 	 -1.470691 	 -7.016689 	 -7.205402 
O 	 -2.844114 	 0.915370 	 -2.492817 
O 	 5.228447 	 3.936218 	 2.376094 
O 	 -4.773156 	 2.156549 	 -6.983802 
O 	 -3.724730 	 -4.563471 	 4.269034 
O 	 -6.710779 	 5.316775 	 4.778016 
O 	 4.401357 	 2.224584 	 -5.301662 
O 	 0.980857 	 -3.468200 	 6.365135 
O 	 2.919596 	 1.250502 	 -2.927240 
O 	 4.519482 	 -2.465883 	 -2.911336 
O 	 4.604051 	 1.093880 	 -0.443324 
O 	 -1.085012 	 6.790066 	 -4.636063 
O 	 3.296729 	 -0.735139 	 -5.131598 
O 	 3.491269 	 5.797741 	 6.002083 
O 	 -4.376879 	 -6.607515 	 2.359039 
O 	 6.856717 	 0.559453 	 -3.246450 
O 	 4.099621 	 7.126760 	 -6.600608 
O 	 0.512883 	 -3.096598 	 -5.366182 
O 	 3.760855 	 -0.508329 	 6.278913 
O 	 -0.174486 	 1.622532 	 -5.452156 
O 	 -3.568106 	 1.258806 	 1.887247 
O 	 -2.516394 	 0.049836 	 5.321416 
O 	 -3.157536 	 6.101586 	 3.787170 
O 	 -4.393026 	 -3.455340 	 7.077793 
O 	 -2.092051 	 5.428801 	 6.471799 
O 	 -4.060405 	 -0.208625 	 -4.552673 
O 	 -0.201826 	 4.393835 	 -2.430715 
O 	 7.404696 	 -4.190346 	 6.687616 
O 	 3.757245 	 -3.002760 	 -7.313229 
O 	 2.680105 	 3.264086 	 3.463524 
O 	 -1.688604 	 -5.603645 	 -2.604040 
O 	 -2.842472 	 3.528836 	 0.452420 
K 	 6.851766 	 6.312593 	 2.296274 
