333
conformation = 36
H 	 -4.612694 	 6.274313 	 4.923696 
H 	 -4.743317 	 -7.205727 	 5.669034 
H 	 6.731110 	 3.297709 	 -4.461293 
H 	 -7.011116 	 2.831358 	 -5.300008 
H 	 -2.828713 	 6.303735 	 -2.424611 
H 	 -3.132015 	 7.327317 	 -3.536968 
H 	 -7.336368 	 7.490238 	 3.478583 
H 	 -5.786971 	 7.261653 	 3.343966 
H 	 -3.700831 	 4.985254 	 0.576222 
H 	 -4.246395 	 5.013813 	 -0.907045 
H 	 -6.473426 	 4.444680 	 -1.879852 
H 	 -5.904465 	 5.810815 	 -2.136507 
H 	 -0.590909 	 2.715656 	 3.806065 
H 	 -1.115360 	 4.086378 	 3.238538 
H 	 -4.252442 	 -1.405980 	 -1.545566 
H 	 -2.718937 	 -1.075157 	 -2.058126 
H 	 -0.788563 	 4.713687 	 7.248720 
H 	 -1.196405 	 5.298303 	 -6.308239 
H 	 -2.746418 	 -3.071771 	 -1.942095 
H 	 -1.476776 	 -3.956164 	 -1.657681 
H 	 5.240879 	 7.210809 	 4.559686 
H 	 5.180511 	 -6.409404 	 3.720522 
H 	 -0.121795 	 -1.167881 	 -1.639462 
H 	 -0.999850 	 0.055530 	 -2.367680 
H 	 4.373501 	 -3.236081 	 -2.513520 
H 	 4.468183 	 -2.590212 	 -0.997541 
H 	 -6.172912 	 -1.468200 	 0.165093 
H 	 -4.899570 	 -0.469833 	 0.435454 
H 	 3.288246 	 7.184069 	 -6.584013 
H 	 2.322784 	 -6.540434 	 -6.123648 
H 	 -6.501388 	 -6.708044 	 -1.988991 
H 	 -4.933763 	 -6.834970 	 -1.655978 
H 	 5.505403 	 5.378553 	 -3.188423 
H 	 4.390646 	 4.130875 	 -3.340022 
H 	 -2.317745 	 1.925585 	 -5.589210 
H 	 -3.251285 	 0.740556 	 -6.136864 
H 	 0.210148 	 1.283958 	 5.247744 
H 	 -1.200157 	 0.484266 	 5.819427 
H 	 2.224979 	 0.229748 	 -7.285870 
H 	 3.321913 	 0.580969 	 6.508186 
H 	 -0.133419 	 -5.588206 	 5.570084 
H 	 0.103679 	 -4.665967 	 6.841481 
H 	 3.584610 	 -1.955510 	 7.276628 
H 	 3.584018 	 -3.532184 	 7.137990 
H 	 -4.850713 	 3.609330 	 5.180133 
H 	 -6.259373 	 4.231637 	 4.482369 
H 	 -3.474145 	 -6.751364 	 2.078179 
H 	 -3.482946 	 -6.911858 	 3.632642 
H 	 3.713461 	 3.005632 	 0.386914 
H 	 3.487081 	 3.476534 	 1.859512 
H 	 2.995626 	 7.126603 	 -2.314530 
H 	 2.205202 	 -6.834362 	 -3.121881 
H 	 1.057674 	 -4.313649 	 -4.047717 
H 	 0.329209 	 -5.236241 	 -3.207929 
H 	 3.417332 	 -5.565972 	 6.447819 
H 	 2.052102 	 -5.190642 	 5.937336 
H 	 -5.397462 	 -4.022905 	 -6.196618 
H 	 -5.109767 	 -3.973352 	 -4.665380 
H 	 -4.811490 	 1.273697 	 6.407591 
H 	 -5.444625 	 2.048144 	 -7.245444 
H 	 6.307027 	 -7.226185 	 -3.116995 
H 	 7.199701 	 6.936721 	 -4.219325 
H 	 -5.458702 	 0.871036 	 -0.883853 
H 	 -5.945068 	 2.338284 	 -0.802879 
H 	 -6.644845 	 6.023420 	 -6.967007 
H 	 -7.212963 	 5.216863 	 6.824262 
H 	 -4.825857 	 -1.699090 	 -5.560893 
H 	 -4.116050 	 -1.273896 	 -4.226053 
H 	 -3.258241 	 3.223416 	 2.247335 
H 	 -4.611844 	 3.666443 	 2.637245 
H 	 6.589799 	 3.129862 	 4.465138 
H 	 5.901128 	 4.498426 	 4.227557 
H 	 -2.611264 	 2.520781 	 6.348836 
H 	 -2.509035 	 3.128781 	 4.996352 
H 	 2.556897 	 4.352169 	 7.346799 
H 	 3.747826 	 3.329956 	 7.237293 
H 	 3.099445 	 0.459727 	 -0.993180 
H 	 2.842523 	 0.520175 	 -2.439339 
H 	 6.900099 	 -0.866054 	 -3.889822 
H 	 6.137715 	 -2.071683 	 -4.370385 
H 	 1.883897 	 -3.895953 	 -6.037755 
H 	 3.082295 	 -4.624689 	 -5.201447 
H 	 6.588458 	 1.440500 	 -0.160744 
H 	 7.195288 	 -0.001931 	 0.089218 
H 	 -2.269918 	 -3.267969 	 0.334747 
H 	 -1.960346 	 -3.992370 	 1.756733 
H 	 -5.590705 	 -7.368537 	 -4.186315 
H 	 -6.166572 	 -6.922038 	 -5.584656 
H 	 2.408302 	 -1.426247 	 -2.753849 
H 	 1.672359 	 -1.118738 	 -4.034928 
H 	 4.620203 	 5.220188 	 6.174822 
H 	 3.604703 	 6.006553 	 5.363560 
H 	 -3.568229 	 -5.184887 	 -5.016436 
H 	 -2.246826 	 -6.027245 	 -5.248922 
H 	 -1.063962 	 -3.659715 	 -4.292146 
H 	 -2.594043 	 -3.452121 	 -4.662894 
H 	 2.613306 	 1.966037 	 4.891138 
H 	 1.068628 	 1.720429 	 3.425477 
H 	 -2.891396 	 -1.084426 	 4.245596 
H 	 -2.351550 	 0.109408 	 3.447579 
H 	 -0.424330 	 6.613482 	 2.427152 
H 	 -1.950245 	 6.588831 	 2.431220 
H 	 5.297545 	 -4.564048 	 -5.046772 
H 	 4.734268 	 -3.324982 	 -5.820976 
H 	 6.483732 	 0.725327 	 5.401382 
H 	 -7.203156 	 1.334982 	 6.309818 
H 	 5.081741 	 -2.362916 	 4.935226 
H 	 4.000258 	 -3.371880 	 4.999217 
H 	 3.296796 	 2.416959 	 -4.755440 
H 	 3.197088 	 3.838336 	 -5.267036 
H 	 7.222751 	 -4.972848 	 -2.197503 
H 	 6.069881 	 -5.824138 	 -1.606076 
H 	 -4.511672 	 5.512881 	 -7.465476 
H 	 -3.189352 	 4.701690 	 -7.237710 
H 	 5.226174 	 -6.877888 	 7.347501 
H 	 5.686019 	 -5.815603 	 6.334695 
H 	 4.751008 	 5.731165 	 -6.564854 
H 	 5.398282 	 6.642470 	 -5.482987 
H 	 3.833256 	 0.493359 	 -6.002699 
H 	 3.604425 	 0.140294 	 -4.511785 
H 	 1.450474 	 -3.225316 	 1.770971 
H 	 1.334158 	 -4.566428 	 0.927537 
H 	 4.948838 	 -0.674922 	 -0.029865 
H 	 3.858667 	 -1.382202 	 0.954683 
H 	 -6.531823 	 -5.629698 	 7.116376 
H 	 -7.543561 	 -5.632232 	 -6.656120 
H 	 0.031338 	 -2.471329 	 -6.459668 
H 	 0.519624 	 -2.480592 	 6.977179 
H 	 -0.432831 	 -6.992254 	 -7.148323 
H 	 -0.468456 	 7.413781 	 -5.676065 
H 	 0.514492 	 0.344037 	 1.382294 
H 	 2.033580 	 0.057583 	 1.455333 
H 	 2.248949 	 -6.468299 	 2.133158 
H 	 1.806137 	 7.172439 	 1.349020 
H 	 -2.958064 	 0.355415 	 1.417542 
H 	 -4.032271 	 1.423078 	 1.344587 
H 	 -4.110642 	 -5.906015 	 -7.058772 
H 	 -3.100413 	 -6.998826 	 -7.381991 
H 	 0.609554 	 3.555346 	 5.552486 
H 	 0.831282 	 5.116185 	 5.643585 
H 	 -1.177432 	 -5.814179 	 3.431014 
H 	 -0.457055 	 -4.395672 	 3.436009 
H 	 -6.518553 	 -2.916095 	 -3.287398 
H 	 -5.110135 	 -3.359201 	 -2.773026 
H 	 -0.688443 	 1.872458 	 -3.535392 
H 	 -2.180627 	 1.954185 	 -3.066317 
H 	 4.934109 	 5.396616 	 -1.120895 
H 	 4.564120 	 5.983751 	 0.164168 
H 	 -0.399742 	 3.154231 	 0.087759 
H 	 -1.563303 	 3.347780 	 1.022130 
H 	 -0.387981 	 5.556799 	 -0.010802 
H 	 -1.737110 	 5.393285 	 -0.566235 
H 	 6.243204 	 0.894132 	 2.865829 
H 	 4.997504 	 1.629502 	 2.258153 
H 	 6.019033 	 3.233511 	 6.726861 
H 	 6.687007 	 3.642416 	 -6.775674 
H 	 -4.315381 	 -3.562083 	 1.956145 
H 	 -4.958046 	 -4.198331 	 3.292848 
H 	 2.025837 	 5.144289 	 1.720545 
H 	 2.015381 	 4.723026 	 0.241764 
H 	 0.357979 	 -0.583488 	 5.709809 
H 	 1.737647 	 -1.209310 	 5.748254 
H 	 -5.512808 	 0.605890 	 -4.923529 
H 	 -6.566832 	 1.187577 	 -3.867400 
H 	 -1.151537 	 -0.388825 	 -0.092866 
H 	 -1.548106 	 -1.203482 	 1.192369 
H 	 -0.102004 	 7.137280 	 -3.191794 
H 	 -0.385370 	 7.286727 	 -1.779912 
H 	 -3.879667 	 2.695800 	 -1.647361 
H 	 -2.487142 	 3.075986 	 -1.256204 
H 	 -5.869893 	 0.158018 	 2.684615 
H 	 -6.801368 	 -1.072399 	 2.600516 
H 	 4.479153 	 -4.863502 	 -0.753570 
H 	 4.174723 	 -6.500521 	 -0.815771 
H 	 7.166732 	 -1.394675 	 6.045267 
H 	 -7.421482 	 -0.955126 	 4.673233 
H 	 -7.327394 	 -4.138017 	 4.463939 
H 	 -7.055147 	 -5.616790 	 4.863934 
H 	 -6.349274 	 -0.477733 	 -7.345358 
H 	 -7.365436 	 -1.263677 	 -6.536509 
H 	 3.346638 	 4.637249 	 3.840593 
H 	 2.200558 	 3.575619 	 3.971311 
H 	 5.844011 	 -3.072640 	 3.138524 
H 	 7.030919 	 -3.454162 	 2.242455 
H 	 6.548009 	 3.779421 	 -1.380255 
H 	 7.272719 	 3.994055 	 0.026465 
H 	 -0.235673 	 5.088202 	 -4.053307 
H 	 -1.337228 	 6.145575 	 -4.242836 
H 	 -4.599213 	 -2.650736 	 5.431837 
H 	 -4.728609 	 -2.196528 	 3.997398 
H 	 7.249030 	 4.451015 	 2.253795 
H 	 -7.230313 	 5.723568 	 1.709825 
H 	 4.436198 	 -5.396278 	 1.695338 
H 	 3.756236 	 -4.657066 	 2.986718 
H 	 -7.370775 	 -3.660870 	 0.037612 
H 	 6.543042 	 -2.862000 	 -0.914307 
H 	 4.134174 	 -0.161803 	 2.761732 
H 	 3.768811 	 -1.557134 	 3.311266 
H 	 -0.892237 	 -1.637447 	 -4.886171 
H 	 -0.125317 	 -0.254798 	 -5.347658 
H 	 0.948054 	 -3.097697 	 -2.137016 
H 	 1.392480 	 -2.842547 	 -0.589113 
H 	 0.529610 	 3.897646 	 -1.961553 
H 	 1.356536 	 3.662679 	 -3.290049 
H 	 0.062467 	 -6.285589 	 0.935004 
H 	 -0.335750 	 -5.977993 	 -0.498092 
H 	 1.505203 	 2.210018 	 0.345226 
H 	 1.759666 	 2.401935 	 -1.120990 
H 	 -1.150357 	 -2.082617 	 3.372528 
H 	 0.100344 	 -2.261325 	 4.263423 
H 	 4.148057 	 2.299049 	 4.740654 
H 	 0.118598 	 1.316276 	 -7.099758 
H 	 -3.039550 	 -6.108061 	 -0.309735 
H 	 -3.517681 	 7.306243 	 -0.160708 
H 	 -7.142336 	 -6.253832 	 1.407158 
H 	 6.591425 	 -5.906302 	 0.432664 
H 	 5.836100 	 0.811744 	 -2.520007 
H 	 5.479023 	 0.801283 	 -4.097008 
H 	 1.905400 	 -7.368541 	 6.257099 
H 	 1.856505 	 -7.210962 	 4.759343 
H 	 0.892797 	 2.006680 	 -5.882754 
O 	 -4.610419 	 7.256092 	 4.809885 
O 	 7.215012 	 3.555016 	 -5.247902 
O 	 -2.848498 	 6.411816 	 -3.409263 
O 	 -6.634514 	 7.255936 	 2.809352 
O 	 -3.720654 	 5.541414 	 -0.234251 
O 	 -5.638796 	 4.873110 	 -2.257580 
O 	 -1.330556 	 3.124708 	 3.237298 
O 	 -3.630006 	 -1.422554 	 -2.293742 
O 	 -1.445932 	 4.537123 	 -6.941177 
O 	 -2.405961 	 -3.790237 	 -1.384321 
O 	 5.830860 	 -6.969545 	 4.231277 
O 	 -0.972333 	 -0.634024 	 -1.656648 
O 	 4.681209 	 -3.404653 	 -1.577151 
O 	 -5.569147 	 -0.824581 	 -0.215303 
O 	 2.344263 	 7.480066 	 -6.578040 
O 	 -5.696981 	 -7.319085 	 -2.075576 
O 	 5.176415 	 4.469103 	 -2.880503 
O 	 -3.088242 	 1.714342 	 -6.176742 
O 	 -0.267085 	 0.790807 	 6.118695 
O 	 3.125004 	 -0.042537 	 7.312302 
O 	 0.179852 	 -5.566659 	 6.494574 
O 	 4.182528 	 -2.737729 	 7.385228 
O 	 -5.279782 	 4.267564 	 4.508690 
O 	 -2.938326 	 -6.509050 	 2.879907 
O 	 4.195267 	 3.073577 	 1.239342 
O 	 3.077519 	 -6.901500 	 -2.679629 
O 	 0.398780 	 -4.288581 	 -3.336746 
O 	 2.972559 	 -5.322875 	 5.625847 
O 	 -4.638868 	 -3.933982 	 -5.587151 
O 	 -5.606455 	 1.378892 	 6.955572 
O 	 6.330115 	 6.876795 	 -3.758074 
O 	 -5.200230 	 1.815676 	 -1.027877 
O 	 -6.638593 	 6.006284 	 6.958422 
O 	 -4.339709 	 -0.973610 	 -5.112392 
O 	 -4.098340 	 3.499226 	 1.838771 
O 	 6.732627 	 4.045556 	 4.046584 
O 	 -3.176134 	 2.805992 	 5.621922 
O 	 3.464497 	 4.161322 	 -7.189922 
O 	 3.090885 	 1.112439 	 -1.700842 
O 	 7.060812 	 -1.768002 	 -4.249204 
O 	 2.172294 	 -4.705767 	 -5.492511 
O 	 6.380689 	 0.445754 	 -0.194760 
O 	 -2.321832 	 -3.193190 	 1.309831 
O 	 -6.067241 	 7.189740 	 -4.995247 
O 	 2.615718 	 -1.110433 	 -3.649427 
O 	 4.450279 	 5.468002 	 5.224719 
O 	 -2.873374 	 -5.731273 	 -4.613201 
O 	 -1.770859 	 -3.014881 	 -4.332397 
O 	 1.005289 	 2.100709 	 4.334514 
O 	 -2.134576 	 -0.522079 	 4.163076 
O 	 -1.184834 	 6.010391 	 2.524562 
O 	 4.902345 	 -3.673989 	 -4.910543 
O 	 7.003323 	 1.545757 	 5.654583 
O 	 4.436403 	 -2.782646 	 4.383734 
O 	 2.974444 	 3.309433 	 -4.504626 
O 	 6.846121 	 -5.900335 	 -2.138017 
O 	 -4.068376 	 4.904351 	 -6.813441 
O 	 5.161759 	 -5.932583 	 7.132222 
O 	 5.136920 	 6.614514 	 -6.405707 
O 	 4.062783 	 0.782194 	 -5.060440 
O 	 1.707534 	 -3.667897 	 0.958161 
O 	 4.205558 	 -1.372996 	 0.042813 
O 	 -6.595355 	 -5.526827 	 -6.794070 
O 	 0.550044 	 -3.015736 	 -7.076312 
O 	 -0.986050 	 -6.994192 	 -6.335049 
O 	 1.400797 	 0.775045 	 1.396146 
O 	 1.478959 	 -6.832220 	 1.636693 
O 	 -3.943536 	 0.459083 	 1.491866 
O 	 -3.806218 	 -6.445754 	 7.123738 
O 	 0.667994 	 4.316830 	 6.139743 
O 	 -0.340631 	 -5.361508 	 3.715677 
O 	 -5.866025 	 -3.687816 	 -3.227742 
O 	 -1.504237 	 1.372707 	 -3.577220 
O 	 4.916238 	 6.245880 	 -0.674508 
O 	 -1.361108 	 3.216088 	 0.085124 
O 	 -0.871292 	 5.824943 	 -0.819130 
O 	 5.259604 	 1.113219 	 3.034800 
O 	 6.346895 	 4.009182 	 7.246996 
O 	 -5.015690 	 -3.543186 	 2.629595 
O 	 2.095958 	 5.526566 	 0.810471 
O 	 0.829073 	 -1.446981 	 5.500077 
O 	 -6.032561 	 1.391912 	 -4.656157 
O 	 -1.222291 	 -0.288468 	 0.949696 
O 	 -0.127679 	 -7.056620 	 -2.560685 
O 	 -3.008692 	 2.914869 	 -2.073788 
O 	 -6.787379 	 -0.123787 	 2.810805 
O 	 4.687499 	 -5.795673 	 -0.385339 
O 	 6.683309 	 -1.151065 	 5.205246 
O 	 -6.865638 	 -4.700739 	 5.113232 
O 	 -6.745545 	 -1.377674 	 -7.323658 
O 	 2.563246 	 4.298142 	 3.416014 
O 	 6.788363 	 -2.912043 	 3.034490 
O 	 7.221983 	 3.429876 	 -0.761738 
O 	 -0.573283 	 5.756350 	 -4.657099 
O 	 -4.351271 	 -1.869859 	 4.875356 
O 	 -7.230311 	 4.768252 	 1.426216 
O 	 4.024003 	 -5.486007 	 2.592337 
O 	 -7.464184 	 -2.850039 	 -0.542343 
O 	 3.503067 	 -0.908742 	 2.605245 
O 	 -0.026939 	 -1.204968 	 -4.961562 
O 	 1.219015 	 -2.393584 	 -1.470081 
O 	 0.425336 	 3.710397 	 -2.920518 
O 	 -0.725781 	 -5.958299 	 0.419444 
O 	 1.486166 	 2.925929 	 -0.334691 
O 	 -0.347950 	 -2.692558 	 3.484585 
O 	 3.501163 	 2.009537 	 5.412671 
O 	 -3.830763 	 -6.648840 	 -0.200596 
O 	 -7.486919 	 -5.536579 	 0.819248 
O 	 6.271162 	 0.841268 	 -3.422775 
O 	 2.030577 	 6.979767 	 5.391013 
O 	 0.656895 	 1.140757 	 -6.266334 
K 	 -4.453781 	 3.850625 	 -4.572496 
