333
conformation = 45
H 	 -4.658132 	 6.213182 	 5.059481 
H 	 -4.703162 	 -7.461060 	 5.844752 
H 	 6.667043 	 3.222417 	 -4.337874 
H 	 -7.014330 	 2.772743 	 -5.259645 
H 	 -2.924743 	 6.197714 	 -2.441541 
H 	 -3.070407 	 7.299212 	 -3.487136 
H 	 -7.416628 	 7.414273 	 3.443883 
H 	 -5.899817 	 7.069645 	 3.429712 
H 	 -3.775770 	 4.891155 	 0.657236 
H 	 -4.249017 	 4.946035 	 -0.775781 
H 	 -6.441679 	 4.334437 	 -1.829846 
H 	 -5.864816 	 5.769444 	 -2.113881 
H 	 -0.553760 	 2.705226 	 3.844124 
H 	 -1.197407 	 3.968218 	 3.317302 
H 	 -4.252941 	 -1.374269 	 -1.439390 
H 	 -2.719600 	 -1.312515 	 -1.972783 
H 	 -0.783794 	 4.505594 	 7.313555 
H 	 -1.195213 	 5.008580 	 -6.138560 
H 	 -2.763307 	 -3.072325 	 -1.840960 
H 	 -1.508154 	 -4.029075 	 -1.596192 
H 	 5.254777 	 7.059345 	 4.602202 
H 	 5.222142 	 -6.563723 	 3.765521 
H 	 -0.152108 	 -1.260359 	 -1.619339 
H 	 -1.024836 	 0.028318 	 -2.237264 
H 	 4.395822 	 -3.358995 	 -2.392392 
H 	 4.392227 	 -2.702494 	 -0.981629 
H 	 -6.157491 	 -1.565856 	 0.210228 
H 	 -4.874173 	 -0.572547 	 0.490060 
H 	 3.243174 	 7.169266 	 -6.477750 
H 	 2.322219 	 -6.560300 	 -6.193447 
H 	 -6.481769 	 -6.858865 	 -1.744673 
H 	 -4.966192 	 -6.914391 	 -1.588465 
H 	 5.505237 	 5.176109 	 -3.185826 
H 	 4.362555 	 4.182860 	 -3.292940 
H 	 -2.297421 	 1.836395 	 -5.556281 
H 	 -3.110377 	 0.672200 	 -6.008904 
H 	 0.166340 	 1.246187 	 5.470328 
H 	 -1.156269 	 0.541172 	 5.905133 
H 	 2.299141 	 0.201746 	 -7.162017 
H 	 3.411106 	 0.443778 	 6.662981 
H 	 -0.199722 	 -5.645717 	 5.672876 
H 	 -0.122304 	 -4.792758 	 6.979175 
H 	 3.688834 	 -1.971324 	 7.397367 
H 	 3.566600 	 -3.515079 	 7.227436 
H 	 -4.927518 	 3.507111 	 5.146272 
H 	 -6.244829 	 4.095099 	 4.639613 
H 	 -3.492074 	 -6.624572 	 2.180460 
H 	 -3.487602 	 -6.969745 	 3.710825 
H 	 3.642800 	 2.773441 	 0.532113 
H 	 3.560894 	 3.357852 	 1.872304 
H 	 2.997015 	 7.016252 	 -2.144489 
H 	 2.178419 	 -6.854298 	 -2.992490 
H 	 1.150623 	 -4.423215 	 -3.954667 
H 	 0.283053 	 -5.362420 	 -3.052653 
H 	 3.556364 	 -5.668912 	 6.477901 
H 	 2.017560 	 -5.364127 	 6.062607 
H 	 -5.447537 	 -4.158641 	 -6.068769 
H 	 -5.052000 	 -4.103409 	 -4.612831 
H 	 -4.785942 	 1.159358 	 6.523996 
H 	 -5.392349 	 1.923996 	 -7.190671 
H 	 6.366646 	 -7.343980 	 -3.105624 
H 	 7.263725 	 6.924527 	 -4.068514 
H 	 -5.515252 	 0.834427 	 -0.663606 
H 	 -5.981230 	 2.341971 	 -0.648164 
H 	 -6.571645 	 5.897954 	 -6.887026 
H 	 -7.306005 	 5.133058 	 6.889047 
H 	 -4.856191 	 -1.751355 	 -5.520008 
H 	 -4.108633 	 -1.368170 	 -4.141198 
H 	 -3.220325 	 3.144988 	 2.316911 
H 	 -4.543077 	 3.713997 	 2.783550 
H 	 6.710038 	 3.136792 	 4.611295 
H 	 5.930483 	 4.461173 	 4.399057 
H 	 -2.606636 	 2.391374 	 6.472136 
H 	 -2.581114 	 2.970808 	 4.941878 
H 	 2.564772 	 4.273907 	 -7.422279 
H 	 3.613142 	 3.292032 	 7.243827 
H 	 3.321185 	 0.258616 	 -1.007499 
H 	 2.864183 	 0.495762 	 -2.431019 
H 	 6.781604 	 -1.091410 	 -3.622696 
H 	 6.188570 	 -2.393751 	 -4.329315 
H 	 1.964782 	 -4.087482 	 -5.950034 
H 	 3.113641 	 -4.596298 	 -5.034788 
H 	 6.605179 	 1.252913 	 -0.148413 
H 	 7.235447 	 -0.073607 	 0.116411 
H 	 -2.303423 	 -3.629471 	 0.429598 
H 	 -1.925272 	 -4.046708 	 1.869109 
H 	 -5.621803 	 7.309518 	 -4.032017 
H 	 -6.089598 	 -6.964908 	 -5.440888 
H 	 2.284996 	 -1.545799 	 -2.676834 
H 	 1.704078 	 -1.218397 	 -4.045555 
H 	 4.700251 	 4.940875 	 6.105893 
H 	 3.632918 	 5.921624 	 5.418280 
H 	 -3.468032 	 -5.334492 	 -5.150152 
H 	 -2.103361 	 -6.155698 	 -5.049242 
H 	 -1.141272 	 -3.877042 	 -4.175255 
H 	 -2.541225 	 -3.511587 	 -4.616876 
H 	 2.606212 	 1.863230 	 5.056707 
H 	 1.039425 	 1.631776 	 3.532812 
H 	 -3.047666 	 -1.022707 	 4.467821 
H 	 -2.212429 	 0.047717 	 3.558998 
H 	 -0.411382 	 6.517926 	 2.521709 
H 	 -1.941257 	 6.590555 	 2.446334 
H 	 5.423821 	 -4.621103 	 -4.748958 
H 	 4.856500 	 -3.370722 	 -5.757026 
H 	 6.631759 	 0.568565 	 5.537179 
H 	 -7.167734 	 1.264109 	 6.331614 
H 	 5.186610 	 -2.387940 	 4.993890 
H 	 4.011145 	 -3.589473 	 5.043570 
H 	 3.435872 	 2.314099 	 -4.569192 
H 	 3.142681 	 3.789331 	 -5.238117 
H 	 7.109145 	 -5.103074 	 -2.259567 
H 	 6.039185 	 -5.950458 	 -1.453963 
H 	 -4.609229 	 5.377730 	 -7.302739 
H 	 -3.203235 	 4.655546 	 -7.091128 
H 	 5.300442 	 -6.945889 	 -7.320320 
H 	 5.665486 	 -6.004278 	 6.387232 
H 	 4.942265 	 5.589615 	 -6.524782 
H 	 5.411259 	 6.589321 	 -5.358033 
H 	 3.839294 	 0.359835 	 -5.841322 
H 	 3.596194 	 0.059773 	 -4.341837 
H 	 1.407810 	 -3.259372 	 1.865704 
H 	 1.218343 	 -4.564643 	 0.968761 
H 	 4.918724 	 -0.821728 	 0.151271 
H 	 3.953007 	 -1.428203 	 1.114065 
H 	 -6.540535 	 -5.528561 	 7.249792 
H 	 -7.573683 	 -5.644085 	 -6.447848 
H 	 0.021577 	 -2.567301 	 -6.328638 
H 	 0.421856 	 -2.571571 	 7.086679 
H 	 -0.433018 	 -7.100571 	 -6.995471 
H 	 -0.455799 	 7.216204 	 -5.575390 
H 	 0.492912 	 0.276310 	 1.523960 
H 	 1.975744 	 -0.130562 	 1.654305 
H 	 2.148825 	 -6.469005 	 2.258425 
H 	 1.747290 	 7.060793 	 1.466828 
H 	 -3.007768 	 0.186041 	 1.450468 
H 	 -4.130858 	 1.395454 	 1.463370 
H 	 -4.130065 	 -5.963491 	 -6.922368 
H 	 -3.018591 	 -6.998128 	 -7.280870 
H 	 0.829328 	 3.444927 	 5.589022 
H 	 0.855219 	 5.042218 	 5.666396 
H 	 -1.174847 	 -5.896398 	 3.529490 
H 	 -0.377575 	 -4.494839 	 3.660643 
H 	 -6.432473 	 -2.966944 	 -3.229198 
H 	 -5.139551 	 -3.390097 	 -2.601269 
H 	 -0.602129 	 1.735600 	 -3.395517 
H 	 -2.058726 	 1.842919 	 -2.921189 
H 	 4.898394 	 5.327024 	 -1.129870 
H 	 4.450704 	 5.938634 	 0.281343 
H 	 -0.388582 	 3.059288 	 0.076275 
H 	 -1.511233 	 3.249762 	 1.163566 
H 	 -0.398222 	 5.563241 	 0.106896 
H 	 -1.779965 	 5.476987 	 -0.420329 
H 	 6.180555 	 0.829749 	 2.937292 
H 	 4.944263 	 1.523068 	 2.287428 
H 	 6.124669 	 3.183564 	 6.740849 
H 	 6.581500 	 3.584528 	 -6.662162 
H 	 -4.227825 	 -3.744503 	 2.198054 
H 	 -5.005311 	 -4.397715 	 3.385329 
H 	 2.065860 	 4.899912 	 1.740170 
H 	 1.883755 	 4.736952 	 0.231686 
H 	 0.341581 	 -0.684882 	 5.841427 
H 	 1.775906 	 -1.280791 	 5.852782 
H 	 -5.464280 	 0.463532 	 -4.840775 
H 	 -6.643305 	 1.042849 	 -3.913347 
H 	 -1.108477 	 -0.387907 	 0.051961 
H 	 -1.477689 	 -1.331228 	 1.168947 
H 	 -0.021769 	 7.153493 	 -3.288519 
H 	 -0.600403 	 7.130740 	 -1.825090 
H 	 -3.840015 	 2.645125 	 -1.500182 
H 	 -2.350291 	 3.128506 	 -1.301425 
H 	 -5.839274 	 0.059110 	 2.578540 
H 	 -6.819037 	 -1.153138 	 2.678723 
H 	 4.493307 	 -4.989647 	 -0.643227 
H 	 4.160011 	 -6.523908 	 -0.692810 
H 	 7.162788 	 -1.539336 	 6.157773 
H 	 -7.361313 	 -1.051935 	 4.845641 
H 	 -7.271051 	 -4.070692 	 4.554460 
H 	 -7.038768 	 -5.638428 	 4.759853 
H 	 -6.435060 	 -0.552553 	 -7.232507 
H 	 -7.394569 	 -1.427616 	 -6.518957 
H 	 3.308596 	 4.572087 	 4.030993 
H 	 2.242276 	 3.389438 	 3.962614 
H 	 5.793685 	 -2.964274 	 3.302703 
H 	 7.004766 	 -3.646074 	 2.473693 
H 	 6.559947 	 3.701129 	 -1.255242 
H 	 7.269399 	 3.988972 	 0.161339 
H 	 -0.237246 	 4.996968 	 -3.863549 
H 	 -1.364894 	 6.118754 	 -4.194847 
H 	 -4.640699 	 -2.677815 	 5.591932 
H 	 -4.633362 	 -2.299883 	 4.070122 
H 	 7.215129 	 4.220392 	 2.291180 
H 	 -7.178710 	 5.599188 	 1.871390 
H 	 4.224792 	 -5.513741 	 1.690857 
H 	 3.829985 	 -4.624835 	 2.934833 
H 	 -7.420404 	 -3.739920 	 0.081394 
H 	 6.548997 	 -2.949992 	 -0.838674 
H 	 4.127360 	 -0.246576 	 2.807096 
H 	 3.760183 	 -1.693952 	 3.358526 
H 	 -0.917979 	 -1.798623 	 -4.689210 
H 	 -0.127283 	 -0.443448 	 -5.253833 
H 	 0.953035 	 -3.206035 	 -1.979001 
H 	 1.335646 	 -2.890566 	 -0.495385 
H 	 0.568717 	 3.939798 	 -1.916838 
H 	 1.351422 	 3.539994 	 -3.130038 
H 	 0.053106 	 -6.414076 	 1.032505 
H 	 -0.407098 	 -5.989197 	 -0.342379 
H 	 1.373155 	 2.085281 	 0.479257 
H 	 1.781486 	 2.283313 	 -1.006117 
H 	 -1.128983 	 -2.258952 	 3.560292 
H 	 0.147411 	 -2.501052 	 4.371010 
H 	 4.146419 	 2.164953 	 4.756032 
H 	 0.163072 	 1.123097 	 -7.021917 
H 	 -3.054283 	 -6.140442 	 -0.179776 
H 	 -3.524950 	 7.226200 	 -0.103911 
H 	 -7.173121 	 -6.411401 	 1.457927 
H 	 6.568041 	 -5.841245 	 0.510117 
H 	 5.740875 	 0.773457 	 -2.507382 
H 	 5.663437 	 0.760768 	 -4.072034 
H 	 1.889942 	 7.343055 	 6.289880 
H 	 1.907127 	 -7.227774 	 4.879467 
H 	 0.778897 	 1.936949 	 -5.781272 
O 	 -4.611062 	 7.181705 	 4.877831 
O 	 7.236120 	 3.476109 	 -5.128621 
O 	 -2.835796 	 6.332595 	 -3.377902 
O 	 -6.665240 	 7.159813 	 2.859953 
O 	 -3.740744 	 5.470915 	 -0.136748 
O 	 -5.652805 	 4.790753 	 -2.168695 
O 	 -1.360564 	 3.002399 	 3.339396 
O 	 -3.635742 	 -1.532166 	 -2.202039 
O 	 -1.458999 	 4.450706 	 -6.856612 
O 	 -2.421210 	 -3.853359 	 -1.322882 
O 	 5.810857 	 -7.098494 	 4.327975 
O 	 -0.975419 	 -0.727024 	 -1.586716 
O 	 4.701895 	 -3.486882 	 -1.504079 
O 	 -5.567601 	 -0.868692 	 -0.159198 
O 	 2.310950 	 7.415057 	 -6.538324 
O 	 -5.716741 	 -7.380952 	 -1.992576 
O 	 5.182243 	 4.359499 	 -2.771906 
O 	 -3.080250 	 1.642518 	 -6.107036 
O 	 -0.280568 	 0.688827 	 6.233529 
O 	 3.159617 	 -0.131148 	 7.409288 
O 	 0.157952 	 -5.681870 	 6.613259 
O 	 4.170614 	 -2.831924 	 -7.384697 
O 	 -5.261127 	 4.181632 	 4.606675 
O 	 -2.937991 	 -6.624158 	 2.994972 
O 	 4.217701 	 2.978181 	 1.286010 
O 	 3.045777 	 -7.007473 	 -2.601291 
O 	 0.401053 	 -4.368125 	 -3.261409 
O 	 2.941766 	 -5.415097 	 5.712614 
O 	 -4.665286 	 -4.048458 	 -5.502724 
O 	 -5.616886 	 1.301334 	 6.993649 
O 	 6.346124 	 6.785092 	 -3.679510 
O 	 -5.212364 	 1.721433 	 -0.937877 
O 	 -6.693561 	 5.891118 	 7.045964 
O 	 -4.368954 	 -1.067775 	 -5.045337 
O 	 -4.062272 	 3.423700 	 1.914365 
O 	 6.728101 	 3.960256 	 4.136494 
O 	 -3.175701 	 2.722951 	 5.707412 
O 	 3.488269 	 4.104463 	 -7.143080 
O 	 3.060269 	 1.034712 	 -1.603904 
O 	 7.036575 	 -1.891759 	 -4.169878 
O 	 2.205475 	 -4.821165 	 -5.382763 
O 	 6.391470 	 0.321704 	 -0.105424 
O 	 -2.331723 	 -3.321604 	 1.401182 
O 	 -6.059199 	 7.133765 	 -4.885248 
O 	 2.561306 	 -1.182275 	 -3.587285 
O 	 4.445088 	 5.384210 	 5.294098 
O 	 -2.886987 	 -5.819209 	 -4.487121 
O 	 -1.762465 	 -3.079560 	 -4.238037 
O 	 0.988826 	 2.010415 	 4.422619 
O 	 -2.120361 	 -0.605393 	 4.251476 
O 	 -1.198318 	 5.942017 	 2.594170 
O 	 4.900510 	 -3.768017 	 -4.850322 
O 	 6.949610 	 1.449292 	 5.727261 
O 	 4.447883 	 -2.872855 	 4.473560 
O 	 2.987352 	 3.199321 	 -4.392696 
O 	 6.874324 	 -6.001086 	 -2.069025 
O 	 -4.096187 	 4.849643 	 -6.724698 
O 	 5.128525 	 -6.016778 	 7.225304 
O 	 5.121276 	 6.527617 	 -6.327201 
O 	 4.081498 	 0.708127 	 -4.972767 
O 	 1.722495 	 -3.737368 	 1.071834 
O 	 4.194216 	 -1.449444 	 0.115663 
O 	 -6.620508 	 -5.645825 	 -6.691933 
O 	 0.548439 	 -3.071530 	 -6.984973 
O 	 -0.988518 	 -7.108829 	 -6.206863 
O 	 1.414634 	 0.677269 	 1.485041 
O 	 1.490655 	 -6.945603 	 1.717799 
O 	 -3.952986 	 0.428462 	 1.604729 
O 	 -3.797720 	 -6.543892 	 7.229607 
O 	 0.698183 	 4.225847 	 6.218371 
O 	 -0.334101 	 -5.460442 	 3.785880 
O 	 -5.899645 	 -3.783052 	 -3.151684 
O 	 -1.475167 	 1.275701 	 -3.484422 
O 	 4.881501 	 6.173347 	 -0.581778 
O 	 -1.371346 	 3.137175 	 0.184433 
O 	 -0.874370 	 5.720986 	 -0.729918 
O 	 5.266230 	 1.009382 	 3.094288 
O 	 6.335026 	 3.934846 	 7.337454 
O 	 -5.061722 	 -3.619071 	 2.721542 
O 	 2.072663 	 5.453308 	 0.895391 
O 	 0.863550 	 -1.528106 	 5.592213 
O 	 -6.020500 	 1.266896 	 -4.617280 
O 	 -1.259741 	 -0.387846 	 1.012487 
O 	 -0.123445 	 -7.164650 	 -2.462033 
O 	 -3.004817 	 2.830474 	 -1.987094 
O 	 -6.773775 	 -0.196911 	 2.911518 
O 	 4.705226 	 -5.850651 	 -0.262493 
O 	 6.700057 	 -1.239432 	 5.330257 
O 	 -6.901011 	 -4.755141 	 5.192020 
O 	 -6.773910 	 -1.476101 	 -7.238165 
O 	 2.564743 	 4.190536 	 3.486618 
O 	 6.766101 	 -2.953581 	 3.129602 
O 	 7.241677 	 3.337469 	 -0.658813 
O 	 -0.526614 	 5.644522 	 -4.597318 
O 	 -4.361980 	 -1.973404 	 4.975194 
O 	 -7.254236 	 4.699343 	 1.510437 
O 	 3.988647 	 -5.580342 	 2.655506 
O 	 -7.454048 	 -2.931854 	 -0.436186 
O 	 3.505249 	 -1.029022 	 2.692982 
O 	 -0.043000 	 -1.298218 	 -4.882756 
O 	 1.246101 	 -2.486520 	 -1.379566 
O 	 0.408414 	 3.623104 	 -2.819791 
O 	 -0.727712 	 -6.057013 	 0.548909 
O 	 1.477264 	 2.808278 	 -0.230149 
O 	 -0.326268 	 -2.800906 	 3.543763 
O 	 3.513976 	 1.933847 	 5.449969 
O 	 -3.816818 	 -6.749035 	 -0.113625 
O 	 -7.491080 	 -5.657507 	 0.938791 
O 	 6.253196 	 0.754206 	 -3.336077 
O 	 2.042131 	 6.895751 	 5.468675 
O 	 0.621647 	 1.069507 	 -6.147950 
K 	 -4.466034 	 3.754426 	 -4.481774 
