333
conformation = 5
H 	 -5.156513 	 6.239048 	 5.008680 
H 	 -4.428919 	 -7.310536 	 5.672771 
H 	 6.422614 	 3.647765 	 -4.537404 
H 	 -7.612607 	 2.484990 	 -5.036968 
H 	 -2.722626 	 6.460440 	 -2.271552 
H 	 -3.024225 	 7.150938 	 -3.583682 
H 	 -7.503790 	 7.251544 	 3.448892 
H 	 -5.981576 	 7.357465 	 3.673843 
H 	 -3.942394 	 4.771443 	 0.526787 
H 	 -4.404750 	 5.179097 	 -0.932648 
H 	 -6.416007 	 4.426260 	 -1.563153 
H 	 -5.916740 	 5.724437 	 -2.176806 
H 	 -0.488949 	 2.689707 	 3.378111 
H 	 -1.120272 	 4.142323 	 3.109778 
H 	 -4.396001 	 -1.218329 	 -1.569529 
H 	 -2.881940 	 -1.136431 	 -2.041867 
H 	 -0.717849 	 4.474440 	 7.334981 
H 	 -1.156176 	 5.112268 	 -6.306560 
H 	 -2.860358 	 -3.370278 	 -1.897971 
H 	 -1.580517 	 -4.250817 	 -1.618976 
H 	 5.395213 	 7.233697 	 4.684126 
H 	 5.072736 	 -6.520693 	 3.740513 
H 	 -0.408425 	 -1.463590 	 -1.609257 
H 	 -0.937896 	 -0.091826 	 -2.328214 
H 	 4.371126 	 -3.322006 	 -2.413694 
H 	 4.128061 	 -2.716546 	 -0.904945 
H 	 -6.250128 	 -1.846316 	 -0.159320 
H 	 -5.235453 	 -0.895247 	 0.765323 
H 	 3.271616 	 7.201101 	 -6.127869 
H 	 2.017883 	 -6.731167 	 -6.039565 
H 	 -6.644352 	 -7.155747 	 -1.981492 
H 	 -5.296273 	 -7.126396 	 -1.253701 
H 	 5.398926 	 5.279546 	 -3.296670 
H 	 4.365137 	 4.011098 	 -3.333623 
H 	 -2.513205 	 1.441207 	 -5.383676 
H 	 -3.837184 	 0.803519 	 -5.970536 
H 	 0.170695 	 1.321736 	 5.378167 
H 	 -1.214509 	 0.640649 	 5.513961 
H 	 2.035927 	 0.215050 	 -7.199414 
H 	 3.117265 	 0.655592 	 6.636118 
H 	 -0.275044 	 -5.436428 	 5.530130 
H 	 0.048470 	 -4.791626 	 6.962362 
H 	 3.415574 	 -2.085577 	 7.306930 
H 	 3.570811 	 -3.626580 	 7.061934 
H 	 -4.947666 	 3.818331 	 5.205064 
H 	 -6.427838 	 4.210195 	 4.599189 
H 	 -3.475853 	 -6.705909 	 1.932239 
H 	 -3.665907 	 -7.026760 	 3.429335 
H 	 3.822570 	 3.318280 	 0.554676 
H 	 3.303801 	 3.400144 	 2.028127 
H 	 3.289913 	 6.999919 	 -2.518534 
H 	 2.113002 	 -7.017093 	 -2.762549 
H 	 0.897713 	 -4.626496 	 -4.024173 
H 	 0.047193 	 -5.367065 	 -3.012300 
H 	 3.426008 	 -5.838673 	 6.306469 
H 	 2.015927 	 -5.450034 	 5.889172 
H 	 -5.265662 	 -4.182740 	 -6.260481 
H 	 -5.344766 	 -3.783408 	 -4.751764 
H 	 -5.092344 	 1.430283 	 6.421875 
H 	 -5.371360 	 1.906849 	 -7.033418 
H 	 6.159818 	 -7.242204 	 -3.281148 
H 	 7.017571 	 6.520068 	 -4.020414 
H 	 -5.457002 	 0.763832 	 -1.142719 
H 	 -6.199073 	 2.197301 	 -1.136783 
H 	 -6.871831 	 6.243967 	 -6.997028 
H 	 -7.170327 	 5.307746 	 6.801100 
H 	 -4.305684 	 -1.887460 	 -5.343816 
H 	 -4.011105 	 -1.084497 	 -4.128597 
H 	 -3.618450 	 3.308561 	 2.624918 
H 	 -5.102630 	 3.681012 	 2.454715 
H 	 6.478622 	 3.035303 	 4.290484 
H 	 5.873717 	 4.346329 	 4.485310 
H 	 -2.881797 	 2.853020 	 6.615671 
H 	 -2.509619 	 2.897296 	 5.095780 
H 	 2.422475 	 3.960571 	 7.326296 
H 	 3.916236 	 3.469506 	 -7.456667 
H 	 2.649968 	 0.650196 	 -0.853582 
H 	 2.754775 	 0.286608 	 -2.356219 
H 	 6.856477 	 -0.709110 	 -4.055250 
H 	 6.140592 	 -2.033937 	 -4.170168 
H 	 1.459993 	 -4.217305 	 -6.273644 
H 	 2.733697 	 -4.244096 	 -5.207261 
H 	 6.353662 	 1.482329 	 -0.086358 
H 	 7.056412 	 0.131174 	 0.116246 
H 	 -2.618857 	 -3.015734 	 0.413976 
H 	 -1.977533 	 -3.931224 	 1.450128 
H 	 -5.762094 	 7.390018 	 -4.252543 
H 	 -6.279614 	 -7.114757 	 -5.634362 
H 	 2.588019 	 -1.883325 	 -2.706875 
H 	 1.725303 	 -1.376823 	 -3.857228 
H 	 4.580547 	 5.207520 	 6.234808 
H 	 3.492607 	 5.975313 	 5.562717 
H 	 -3.790714 	 -5.411692 	 -4.753959 
H 	 -2.454906 	 -6.059393 	 -5.487268 
H 	 -1.280815 	 -3.629600 	 -3.813035 
H 	 -2.492549 	 -3.726003 	 -4.845386 
H 	 2.438444 	 1.950214 	 5.120510 
H 	 1.154434 	 1.443767 	 3.602966 
H 	 -2.821633 	 -1.179913 	 4.729500 
H 	 -2.985917 	 -0.100164 	 3.781682 
H 	 -0.473483 	 6.467667 	 2.506983 
H 	 -1.931182 	 6.361337 	 3.059524 
H 	 5.317691 	 -4.441386 	 -5.336434 
H 	 4.643381 	 -3.128190 	 -5.558288 
H 	 6.562119 	 0.706509 	 5.619758 
H 	 -7.055955 	 1.475806 	 6.179305 
H 	 4.924020 	 -2.398539 	 4.923195 
H 	 3.874791 	 -3.404375 	 5.186849 
H 	 3.099368 	 2.365084 	 -4.501607 
H 	 2.777585 	 3.514540 	 -5.526397 
H 	 7.245745 	 -5.147991 	 -1.928550 
H 	 5.999977 	 -5.929973 	 -1.356584 
H 	 -4.624849 	 5.223838 	 -7.458175 
H 	 -3.142084 	 4.841730 	 -7.149047 
H 	 5.264123 	 -6.955238 	 7.378817 
H 	 5.473438 	 -5.890753 	 6.230558 
H 	 4.777005 	 5.550138 	 -6.285326 
H 	 5.373962 	 6.710234 	 -5.441055 
H 	 3.920705 	 0.506155 	 -5.995839 
H 	 3.407821 	 -0.172809 	 -4.690438 
H 	 0.870278 	 -3.466638 	 1.513686 
H 	 1.471931 	 -4.790221 	 1.025572 
H 	 4.804068 	 -0.763774 	 -0.057337 
H 	 3.891565 	 -1.506956 	 1.032519 
H 	 -6.319385 	 -5.889980 	 7.212871 
H 	 -7.617093 	 -5.450756 	 -7.146542 
H 	 0.281743 	 -2.623415 	 -6.340877 
H 	 0.695224 	 -2.623792 	 7.044511 
H 	 -0.634495 	 -6.320704 	 -6.971221 
H 	 -0.440830 	 7.331156 	 -6.043546 
H 	 0.456554 	 0.188552 	 1.180769 
H 	 1.888523 	 0.196429 	 1.924169 
H 	 2.286273 	 -6.483543 	 1.945781 
H 	 1.641877 	 -7.327124 	 0.917208 
H 	 -3.072639 	 0.165079 	 1.104094 
H 	 -4.249396 	 1.108868 	 1.179659 
H 	 -4.281860 	 -6.064783 	 -6.946759 
H 	 -3.311581 	 -7.165794 	 -7.446494 
H 	 0.273246 	 3.598435 	 5.514526 
H 	 0.825323 	 5.095966 	 5.827241 
H 	 -1.371424 	 -5.790544 	 3.462535 
H 	 -0.680833 	 -4.458351 	 3.808698 
H 	 -6.659405 	 -3.133700 	 -3.249711 
H 	 -5.257666 	 -3.331386 	 -2.473637 
H 	 -1.023162 	 2.056872 	 -3.652555 
H 	 -2.346882 	 1.692183 	 -2.882480 
H 	 4.833533 	 5.331154 	 -1.247498 
H 	 4.598484 	 5.701814 	 0.219944 
H 	 -0.544642 	 2.763003 	 -0.020249 
H 	 -1.556040 	 3.004949 	 1.131452 
H 	 -0.356154 	 5.453271 	 -0.066309 
H 	 -1.647352 	 5.098499 	 -0.704460 
H 	 6.028672 	 0.723035 	 3.073803 
H 	 5.100904 	 1.810079 	 2.465292 
H 	 6.706539 	 3.049712 	 6.828196 
H 	 6.442000 	 3.795775 	 -6.700025 
H 	 -4.246714 	 -3.286509 	 2.109579 
H 	 -4.831887 	 -4.511597 	 3.062975 
H 	 2.116803 	 5.248456 	 1.894703 
H 	 1.906187 	 4.474634 	 0.473444 
H 	 0.333004 	 -0.698960 	 5.869783 
H 	 1.580436 	 -1.371858 	 5.236030 
H 	 -5.681349 	 0.587519 	 -4.673216 
H 	 -6.692755 	 1.242443 	 -3.668506 
H 	 -1.228983 	 -0.470816 	 0.088504 
H 	 -1.258849 	 -1.297536 	 1.371222 
H 	 -0.522375 	 7.140413 	 -3.130075 
H 	 0.031646 	 7.233036 	 -1.791770 
H 	 -4.006895 	 2.328093 	 -1.760513 
H 	 -2.686517 	 2.756856 	 -1.215026 
H 	 -6.086691 	 -0.075177 	 3.284683 
H 	 -6.933688 	 -1.233533 	 2.567278 
H 	 4.244417 	 -5.123866 	 -0.872400 
H 	 4.104724 	 -6.743354 	 -0.814118 
H 	 7.169136 	 -1.365990 	 5.836982 
H 	 6.977569 	 -1.187579 	 4.341053 
H 	 -7.258166 	 -4.367505 	 4.495403 
H 	 -7.314143 	 -5.830883 	 5.089719 
H 	 -6.068766 	 -0.725563 	 -7.276735 
H 	 -6.915730 	 -1.472123 	 -6.311388 
H 	 3.101158 	 4.239028 	 4.200852 
H 	 1.775218 	 3.608063 	 3.696420 
H 	 5.874869 	 -3.422628 	 3.085072 
H 	 6.995179 	 -3.580690 	 2.070390 
H 	 6.293159 	 3.566685 	 -1.383915 
H 	 7.037581 	 3.837125 	 0.001316 
H 	 -0.316866 	 4.946556 	 -4.297887 
H 	 -1.695323 	 5.698126 	 -4.095569 
H 	 -4.380743 	 -2.615992 	 5.554644 
H 	 -4.740894 	 -2.583861 	 4.060362 
H 	 7.274970 	 4.581267 	 2.436852 
H 	 -6.904440 	 5.518121 	 1.567393 
H 	 4.457445 	 -5.312776 	 1.866683 
H 	 3.683859 	 -4.853017 	 3.305935 
H 	 -7.400707 	 -3.907312 	 -0.239715 
H 	 6.385435 	 -2.999104 	 -0.880116 
H 	 4.052047 	 -0.231415 	 2.965851 
H 	 3.435509 	 -1.618239 	 3.271770 
H 	 -0.880087 	 -1.555522 	 -4.494683 
H 	 -0.123051 	 -0.331233 	 -5.210997 
H 	 0.795109 	 -3.254577 	 -2.047637 
H 	 1.265999 	 -2.818028 	 -0.615348 
H 	 0.291795 	 3.806468 	 -2.061797 
H 	 1.367967 	 3.490520 	 -3.209284 
H 	 -0.204956 	 -6.206974 	 0.908216 
H 	 -0.414471 	 -6.096295 	 -0.541491 
H 	 1.437926 	 2.180049 	 0.331869 
H 	 1.987362 	 2.517156 	 -1.029360 
H 	 -1.200703 	 -2.104150 	 3.220397 
H 	 -0.085559 	 -2.154933 	 4.285685 
H 	 3.896842 	 1.415244 	 5.013859 
H 	 0.134898 	 1.219453 	 -7.173075 
H 	 -3.066442 	 -6.386222 	 -0.402916 
H 	 -3.826816 	 7.219691 	 -0.064691 
H 	 -6.979258 	 -5.783814 	 1.469765 
H 	 6.853795 	 -6.345122 	 0.604034 
H 	 6.138595 	 0.512552 	 -2.372878 
H 	 5.290946 	 0.835925 	 -3.628092 
H 	 1.848757 	 7.276797 	 6.342274 
H 	 1.684122 	 -7.378075 	 4.839622 
H 	 1.047107 	 1.858246 	 -6.008413 
O 	 -4.689639 	 7.099136 	 4.846132 
O 	 7.094514 	 3.392127 	 -5.245935 
O 	 -3.062367 	 6.280512 	 -3.134816 
O 	 -6.633810 	 7.243188 	 2.958012 
O 	 -3.726771 	 5.351443 	 -0.229175 
O 	 -5.722378 	 4.750804 	 -2.198351 
O 	 -1.363505 	 3.199090 	 3.249881 
O 	 -3.760790 	 -1.450600 	 -2.269339 
O 	 -1.503564 	 4.463901 	 -6.915644 
O 	 -2.426548 	 -3.981785 	 -1.254743 
O 	 5.813763 	 -6.885184 	 4.285123 
O 	 -1.065795 	 -0.684474 	 -1.570404 
O 	 4.509268 	 -3.482428 	 -1.488747 
O 	 -5.662666 	 -1.077579 	 -0.088540 
O 	 2.348183 	 7.290324 	 -6.380392 
O 	 -5.733446 	 7.430632 	 -2.077987 
O 	 5.082300 	 4.418535 	 -2.887429 
O 	 -3.218971 	 1.549385 	 -6.074220 
O 	 -0.390306 	 0.755992 	 6.012581 
O 	 2.848831 	 -0.144749 	 7.287159 
O 	 0.228708 	 -5.549137 	 6.369303 
O 	 4.101050 	 -2.840161 	 7.293239 
O 	 -5.432020 	 4.194482 	 4.493035 
O 	 -3.071341 	 -6.545591 	 2.826972 
O 	 4.014772 	 3.007912 	 1.449574 
O 	 3.067960 	 -6.943425 	 -2.638348 
O 	 0.309462 	 -4.443231 	 -3.267171 
O 	 2.940110 	 -5.252392 	 5.673580 
O 	 -4.695469 	 -3.870530 	 -5.542412 
O 	 -5.612584 	 1.237626 	 7.210101 
O 	 6.120774 	 6.768023 	 -3.745525 
O 	 -5.315709 	 1.721990 	 -1.014732 
O 	 -6.525021 	 6.028796 	 7.018150 
O 	 -4.383791 	 -0.980707 	 -4.998746 
O 	 -4.299535 	 3.318652 	 1.949617 
O 	 6.630696 	 3.914103 	 4.059905 
O 	 -3.277942 	 2.663961 	 5.697837 
O 	 3.221113 	 3.973203 	 -7.012811 
O 	 3.066427 	 0.973018 	 -1.673788 
O 	 7.073990 	 -1.688235 	 -4.206073 
O 	 1.923363 	 -4.701331 	 -5.514121 
O 	 6.236226 	 0.524630 	 -0.177341 
O 	 -2.417740 	 -3.101313 	 1.328219 
O 	 -6.207661 	 6.998552 	 -5.034467 
O 	 2.638958 	 -1.253194 	 -3.492065 
O 	 4.328240 	 5.449484 	 5.355141 
O 	 -2.954197 	 -5.880311 	 -4.665063 
O 	 -1.955558 	 -3.129764 	 -4.323602 
O 	 0.973570 	 2.031797 	 4.355501 
O 	 -2.258497 	 -0.609169 	 4.146196 
O 	 -1.211395 	 5.841435 	 2.629388 
O 	 4.740736 	 -3.784016 	 -4.812251 
O 	 6.945048 	 1.559504 	 5.704980 
O 	 4.245782 	 -2.878412 	 4.423066 
O 	 2.803551 	 3.309571 	 -4.515519 
O 	 6.660849 	 -5.866311 	 -2.067892 
O 	 -4.102798 	 4.712319 	 -6.871626 
O 	 5.232823 	 -5.992749 	 7.182038 
O 	 5.027511 	 6.475800 	 -6.316565 
O 	 3.865364 	 0.643007 	 -5.037265 
O 	 1.579637 	 -3.830349 	 0.947084 
O 	 4.128336 	 -1.454979 	 0.097117 
O 	 -6.671545 	 -5.562127 	 -6.846985 
O 	 0.464891 	 -3.194981 	 -7.081716 
O 	 -1.126570 	 -6.980662 	 -6.477258 
O 	 1.249509 	 0.757374 	 1.418715 
O 	 1.413418 	 -6.885387 	 1.734714 
O 	 -3.964449 	 0.209704 	 1.501988 
O 	 -3.938793 	 -6.492691 	 7.110866 
O 	 0.462867 	 4.267084 	 6.219794 
O 	 -0.495183 	 -5.436605 	 3.808655 
O 	 -5.892566 	 -3.770228 	 -3.138107 
O 	 -1.688786 	 1.331183 	 -3.596475 
O 	 4.927549 	 6.103237 	 -0.632421 
O 	 -1.449093 	 3.079633 	 0.134817 
O 	 -0.936586 	 5.783775 	 -0.780258 
O 	 5.166414 	 1.116498 	 3.181267 
O 	 6.217357 	 3.850158 	 7.197016 
O 	 -4.987239 	 -3.618986 	 2.610077 
O 	 2.064849 	 5.383122 	 0.891057 
O 	 0.691254 	 -1.584582 	 5.602322 
O 	 -6.135980 	 1.432444 	 -4.429663 
O 	 -1.237610 	 -0.344001 	 1.111735 
O 	 -0.190340 	 -7.066448 	 -2.532952 
O 	 -3.172639 	 2.818019 	 -2.023391 
O 	 -6.960418 	 -0.274475 	 2.796924 
O 	 4.518948 	 -5.968640 	 -0.436538 
O 	 6.459067 	 -1.250735 	 5.170838 
O 	 -6.846285 	 -4.962137 	 5.185229 
O 	 -6.761348 	 -1.408811 	 -7.247037 
O 	 2.452863 	 4.287752 	 3.461530 
O 	 6.828986 	 -3.230657 	 2.969356 
O 	 7.030389 	 3.298894 	 -0.797940 
O 	 -0.836183 	 5.788008 	 -4.446772 
O 	 -4.503835 	 -1.940275 	 4.852399 
O 	 -7.264710 	 4.626214 	 1.496203 
O 	 4.047761 	 -5.597547 	 2.729800 
O 	 -7.601354 	 -3.006527 	 -0.523291 
O 	 3.364489 	 -0.880593 	 2.645551 
O 	 -0.035102 	 -1.243362 	 -4.914874 
O 	 1.022518 	 -2.451432 	 -1.478917 
O 	 0.377620 	 3.601797 	 -3.010980 
O 	 -0.854371 	 -5.959285 	 0.279431 
O 	 1.442925 	 2.925816 	 -0.329790 
O 	 -0.522468 	 -2.710699 	 3.546847 
O 	 3.335910 	 1.893442 	 5.662225 
O 	 -3.957435 	 -6.691017 	 -0.116679 
O 	 -7.605766 	 -5.507143 	 0.785104 
O 	 6.215946 	 0.762494 	 -3.341235 
O 	 1.850070 	 6.797336 	 5.491358 
O 	 0.691869 	 1.028853 	 -6.346788 
K 	 -4.511974 	 3.810297 	 -4.507006 
