333
conformation = 35
H 	 -4.611869 	 6.223088 	 4.911585 
H 	 -4.742732 	 -7.215088 	 5.656474 
H 	 6.726606 	 3.247756 	 -4.448465 
H 	 -7.033742 	 2.789607 	 -5.281324 
H 	 -2.809282 	 6.261969 	 -2.433537 
H 	 -3.141671 	 7.273560 	 -3.538781 
H 	 -7.330501 	 7.438277 	 3.500896 
H 	 -5.788009 	 7.236496 	 3.339026 
H 	 -3.695488 	 4.944213 	 0.572094 
H 	 -4.248688 	 4.981553 	 -0.907767 
H 	 -6.470841 	 4.387849 	 -1.868428 
H 	 -5.892710 	 5.767057 	 -2.129615 
H 	 -0.589468 	 2.651453 	 3.806654 
H 	 -1.107868 	 4.042787 	 3.234900 
H 	 -4.241342 	 -1.458379 	 -1.545885 
H 	 -2.746836 	 -1.096429 	 -2.050890 
H 	 -0.779907 	 4.679536 	 7.238935 
H 	 -1.209087 	 5.253402 	 -6.337449 
H 	 -2.739235 	 -3.126886 	 -1.955764 
H 	 -1.473561 	 -3.997170 	 -1.665617 
H 	 5.259319 	 7.179918 	 4.570165 
H 	 5.187531 	 -6.443314 	 3.731145 
H 	 -0.118979 	 -1.209566 	 -1.641075 
H 	 -0.985560 	 -0.012532 	 -2.370145 
H 	 4.374228 	 -3.277208 	 -2.500086 
H 	 4.470140 	 -2.630557 	 -0.984447 
H 	 -6.166026 	 -1.514042 	 0.168306 
H 	 -4.921208 	 -0.521441 	 0.450904 
H 	 3.279618 	 7.136617 	 -6.580365 
H 	 2.321119 	 -6.589962 	 -6.096017 
H 	 -6.486358 	 -6.760814 	 -2.016355 
H 	 -4.939315 	 -6.891246 	 -1.642387 
H 	 5.494762 	 5.334055 	 -3.175593 
H 	 4.417965 	 4.072153 	 -3.325042 
H 	 -2.318308 	 1.868333 	 -5.576497 
H 	 -3.274476 	 0.695751 	 -6.131157 
H 	 0.212572 	 1.223550 	 5.243356 
H 	 -1.184237 	 0.425003 	 5.822149 
H 	 2.217850 	 0.174009 	 -7.295227 
H 	 3.310681 	 0.550576 	 6.498114 
H 	 -0.121480 	 -5.627624 	 5.568855 
H 	 0.139498 	 -4.700961 	 6.838487 
H 	 3.563767 	 -1.998224 	 7.274667 
H 	 3.594616 	 -3.588670 	 7.138974 
H 	 -4.863683 	 3.594536 	 5.178635 
H 	 -6.270275 	 4.189758 	 4.478802 
H 	 -3.467652 	 -6.822905 	 2.071099 
H 	 -3.467623 	 -6.950871 	 3.620754 
H 	 3.739882 	 2.984610 	 0.387824 
H 	 3.490625 	 3.431532 	 1.874366 
H 	 3.002698 	 7.084001 	 -2.327313 
H 	 2.217694 	 -6.887984 	 -3.120073 
H 	 1.048467 	 -4.339897 	 -4.059441 
H 	 0.317411 	 -5.297748 	 -3.197284 
H 	 3.406544 	 -5.619440 	 6.457770 
H 	 2.062044 	 -5.221780 	 5.923854 
H 	 -5.379525 	 -4.065134 	 -6.198400 
H 	 -5.125212 	 -4.001194 	 -4.667866 
H 	 -4.823561 	 1.247968 	 6.414011 
H 	 -5.436950 	 2.011718 	 -7.241974 
H 	 6.295869 	 -7.274915 	 -3.115432 
H 	 7.180882 	 6.869606 	 -4.226098 
H 	 -5.450029 	 0.819280 	 -0.911982 
H 	 -5.972124 	 2.297447 	 -0.810062 
H 	 -6.657600 	 5.994920 	 -6.970787 
H 	 -7.200057 	 5.171993 	 6.821025 
H 	 -4.810371 	 -1.752135 	 -5.538863 
H 	 -4.124503 	 -1.316123 	 -4.240140 
H 	 -3.275511 	 3.183051 	 2.241278 
H 	 -4.652054 	 3.610595 	 2.643439 
H 	 6.582149 	 3.112878 	 4.428878 
H 	 5.908645 	 4.444995 	 4.212429 
H 	 -2.603398 	 2.477970 	 6.376164 
H 	 -2.493911 	 3.097920 	 5.004580 
H 	 2.559513 	 4.305201 	 7.339854 
H 	 3.767153 	 3.291734 	 7.257323 
H 	 3.059270 	 0.457431 	 -0.975986 
H 	 2.831098 	 0.462344 	 -2.451642 
H 	 6.927116 	 -0.877424 	 -3.920255 
H 	 6.123786 	 -2.092358 	 -4.363706 
H 	 1.877168 	 -3.937229 	 -6.030999 
H 	 3.076325 	 -4.672310 	 -5.219731 
H 	 6.580494 	 1.395759 	 -0.149370 
H 	 7.162921 	 -0.032279 	 0.089603 
H 	 -2.263791 	 -3.278789 	 0.353203 
H 	 -1.968737 	 -4.030211 	 1.725924 
H 	 -5.591863 	 -7.391170 	 -4.203318 
H 	 -6.173630 	 -6.976258 	 -5.594288 
H 	 2.434545 	 -1.480059 	 -2.728976 
H 	 1.684283 	 -1.159950 	 -4.023213 
H 	 4.601632 	 5.218741 	 6.164675 
H 	 3.604288 	 5.959175 	 5.365460 
H 	 -3.578855 	 -5.226978 	 -4.984045 
H 	 -2.271207 	 -6.061645 	 -5.289988 
H 	 -1.043365 	 -3.694925 	 -4.287650 
H 	 -2.598745 	 -3.501401 	 -4.658664 
H 	 2.627687 	 1.925789 	 4.891450 
H 	 1.074999 	 1.672693 	 3.430858 
H 	 -2.884227 	 -1.165468 	 4.231480 
H 	 -2.378941 	 0.048320 	 3.457112 
H 	 -0.427084 	 6.573704 	 2.427727 
H 	 -1.955203 	 6.538840 	 2.450878 
H 	 5.290942 	 -4.632029 	 -5.095626 
H 	 4.714190 	 -3.387913 	 -5.817952 
H 	 6.485800 	 0.723165 	 5.410866 
H 	 -7.188365 	 1.281517 	 6.328819 
H 	 5.074397 	 -2.409459 	 4.945269 
H 	 3.984181 	 -3.411623 	 5.017611 
H 	 3.277507 	 2.364150 	 -4.774285 
H 	 3.213545 	 3.811451 	 -5.303685 
H 	 7.232629 	 -5.040079 	 -2.169655 
H 	 6.058958 	 -5.860244 	 -1.597434 
H 	 -4.481345 	 5.447795 	 -7.451363 
H 	 -3.186368 	 4.653988 	 -7.240682 
H 	 5.211206 	 -6.929653 	 7.326549 
H 	 5.689955 	 -5.842768 	 6.331670 
H 	 4.730165 	 5.706399 	 -6.552127 
H 	 5.399279 	 6.593274 	 -5.480435 
H 	 3.844804 	 0.466376 	 -5.997466 
H 	 3.590031 	 0.075397 	 -4.514176 
H 	 1.441619 	 -3.295127 	 1.768103 
H 	 1.348630 	 -4.616364 	 0.954062 
H 	 4.942066 	 -0.723467 	 -0.038782 
H 	 3.847020 	 -1.434172 	 0.944894 
H 	 -6.536337 	 -5.704354 	 7.120331 
H 	 -7.544485 	 -5.687451 	 -6.688323 
H 	 0.052882 	 -2.522385 	 -6.473079 
H 	 0.547317 	 -2.531548 	 6.985866 
H 	 -0.442086 	 -7.014232 	 -7.149285 
H 	 -0.455424 	 7.370614 	 -5.665952 
H 	 0.500864 	 0.290374 	 1.367374 
H 	 2.052771 	 0.031063 	 1.444121 
H 	 2.262394 	 -6.526785 	 2.121261 
H 	 1.810793 	 7.154335 	 1.337773 
H 	 -2.963380 	 0.325190 	 1.417545 
H 	 -4.022089 	 1.377685 	 1.333870 
H 	 -4.116545 	 -5.943008 	 -7.046894 
H 	 -3.112755 	 -7.058606 	 -7.382726 
H 	 0.572371 	 3.511925 	 5.542094 
H 	 0.834414 	 5.072328 	 5.641132 
H 	 -1.186882 	 -5.858347 	 3.423107 
H 	 -0.473005 	 -4.460792 	 3.427747 
H 	 -6.537410 	 -2.972209 	 -3.290470 
H 	 -5.085053 	 -3.408737 	 -2.768574 
H 	 -0.703743 	 1.848523 	 -3.544122 
H 	 -2.186026 	 1.898299 	 -3.081284 
H 	 4.941543 	 5.337847 	 -1.122450 
H 	 4.581024 	 5.934060 	 0.167863 
H 	 -0.404092 	 3.107265 	 0.093767 
H 	 -1.578594 	 3.303703 	 1.031725 
H 	 -0.372626 	 5.510443 	 -0.024438 
H 	 -1.738759 	 5.327447 	 -0.596745 
H 	 6.230169 	 0.846269 	 2.873855 
H 	 5.006089 	 1.605105 	 2.258887 
H 	 6.012271 	 3.167039 	 6.736894 
H 	 6.700263 	 3.590091 	 -6.763837 
H 	 -4.333222 	 -3.598640 	 1.950356 
H 	 -4.936718 	 -4.258320 	 3.306564 
H 	 2.022184 	 5.124665 	 1.753212 
H 	 2.036702 	 4.655290 	 0.245173 
H 	 0.352579 	 -0.621458 	 5.703721 
H 	 1.740755 	 -1.262477 	 5.739454 
H 	 -5.518073 	 0.556073 	 -4.912014 
H 	 -6.542596 	 1.145287 	 -3.860175 
H 	 -1.164875 	 -0.433434 	 -0.074394 
H 	 -1.551731 	 -1.240536 	 1.220563 
H 	 -0.114341 	 7.075237 	 -3.171765 
H 	 -0.341885 	 7.266985 	 -1.757948 
H 	 -3.888577 	 2.625132 	 -1.670406 
H 	 -2.521803 	 2.996957 	 -1.263475 
H 	 -5.842866 	 0.127932 	 2.714075 
H 	 -6.806865 	 -1.123731 	 2.602818 
H 	 4.467118 	 -4.931739 	 -0.764195 
H 	 4.178885 	 -6.535666 	 -0.822096 
H 	 7.141660 	 -1.427196 	 6.049537 
H 	 -7.452178 	 -0.996198 	 4.632495 
H 	 -7.347807 	 -4.206060 	 4.452313 
H 	 -7.067038 	 -5.681532 	 4.885341 
H 	 -6.326018 	 -0.532689 	 -7.361082 
H 	 -7.341784 	 -1.313768 	 -6.543483 
H 	 3.351433 	 4.582905 	 3.830435 
H 	 2.187370 	 3.556834 	 3.982839 
H 	 5.858276 	 -3.153981 	 3.125476 
H 	 7.035046 	 -3.484661 	 2.215253 
H 	 6.539026 	 3.730445 	 -1.383838 
H 	 7.270400 	 3.957046 	 0.040799 
H 	 -0.234670 	 5.026221 	 -4.058197 
H 	 -1.343174 	 6.067815 	 -4.226267 
H 	 -4.587493 	 -2.706719 	 5.432070 
H 	 -4.748466 	 -2.243257 	 3.980647 
H 	 7.247121 	 4.402838 	 2.274042 
H 	 -7.222855 	 5.675119 	 1.672197 
H 	 4.470387 	 -5.425160 	 1.700760 
H 	 3.740244 	 -4.695318 	 3.012159 
H 	 -7.366980 	 -3.697759 	 0.029091 
H 	 6.539355 	 -2.912367 	 -0.910252 
H 	 4.144972 	 -0.201525 	 2.776454 
H 	 3.762517 	 -1.588167 	 3.310953 
H 	 -0.908393 	 -1.668722 	 -4.892586 
H 	 -0.128308 	 -0.308398 	 -5.337446 
H 	 0.947011 	 -3.146085 	 -2.142123 
H 	 1.401137 	 -2.887219 	 -0.610636 
H 	 0.507898 	 3.831390 	 -1.962466 
H 	 1.369512 	 3.619472 	 -3.316570 
H 	 0.032625 	 -6.311817 	 0.923744 
H 	 -0.338357 	 -6.035615 	 -0.492270 
H 	 1.531399 	 2.158614 	 0.350299 
H 	 1.760675 	 2.363721 	 -1.120624 
H 	 -1.149940 	 -2.115470 	 3.351460 
H 	 0.105542 	 -2.275695 	 4.267089 
H 	 4.146690 	 2.246856 	 4.757340 
H 	 0.113846 	 1.293277 	 -7.097116 
H 	 -3.034182 	 -6.166847 	 -0.316548 
H 	 -3.524149 	 7.270840 	 -0.156776 
H 	 -7.140606 	 -6.276962 	 1.405901 
H 	 6.618219 	 -5.978482 	 0.449886 
H 	 5.851876 	 0.759385 	 -2.503610 
H 	 5.476074 	 0.755143 	 -4.055287 
H 	 1.919382 	 -7.429047 	 6.257931 
H 	 1.853814 	 -7.279937 	 4.740523 
H 	 0.904831 	 1.945677 	 -5.898109 
O 	 -4.610772 	 7.208318 	 4.812777 
O 	 7.213193 	 3.508266 	 -5.254665 
O 	 -2.852021 	 6.366163 	 -3.397043 
O 	 -6.628559 	 7.213416 	 2.816015 
O 	 -3.716717 	 5.492427 	 -0.236229 
O 	 -5.637861 	 4.827946 	 -2.257603 
O 	 -1.325878 	 3.087897 	 3.234939 
O 	 -3.628819 	 -1.463532 	 -2.295372 
O 	 -1.443652 	 4.494342 	 -6.939266 
O 	 -2.403589 	 -3.840238 	 -1.378081 
O 	 5.832397 	 -7.006316 	 4.229356 
O 	 -0.972813 	 -0.676938 	 -1.653562 
O 	 4.677221 	 -3.449644 	 -1.575721 
O 	 -5.569141 	 -0.876704 	 -0.210069 
O 	 2.350573 	 7.430574 	 -6.569968 
O 	 -5.694549 	 -7.366738 	 -2.075604 
O 	 5.174737 	 4.428939 	 -2.884775 
O 	 -3.090433 	 1.667364 	 -6.174551 
O 	 -0.266579 	 0.749622 	 6.111681 
O 	 3.117163 	 -0.086835 	 7.310612 
O 	 0.183952 	 -5.606687 	 6.487773 
O 	 4.184004 	 -2.782318 	 7.377369 
O 	 -5.281160 	 4.221920 	 4.507256 
O 	 -2.940229 	 -6.549808 	 2.875693 
O 	 4.189103 	 3.030842 	 1.246152 
O 	 3.081985 	 -6.942765 	 -2.678716 
O 	 0.398868 	 -4.334513 	 -3.335375 
O 	 2.976388 	 -5.364420 	 5.626045 
O 	 -4.635223 	 -3.973238 	 -5.586861 
O 	 -5.604870 	 1.331462 	 6.964473 
O 	 6.326975 	 6.833418 	 -3.756959 
O 	 -5.197260 	 1.771638 	 -1.028895 
O 	 -6.628668 	 5.967003 	 6.959219 
O 	 -4.335034 	 -1.016016 	 -5.108806 
O 	 -4.102807 	 3.451580 	 1.840986 
O 	 6.731645 	 3.997581 	 4.047864 
O 	 -3.177482 	 2.760580 	 5.621398 
O 	 3.458903 	 4.110554 	 -7.183273 
O 	 3.096439 	 1.064618 	 -1.701086 
O 	 7.065007 	 -1.805248 	 -4.247812 
O 	 2.165005 	 -4.744977 	 -5.496747 
O 	 6.379928 	 0.408457 	 -0.194953 
O 	 -2.320954 	 -3.229977 	 1.309137 
O 	 -6.069195 	 7.139519 	 -4.999027 
O 	 2.623157 	 -1.157281 	 -3.645886 
O 	 4.450317 	 5.423174 	 5.230423 
O 	 -2.871903 	 -5.776071 	 -4.618475 
O 	 -1.774340 	 -3.062358 	 -4.334225 
O 	 1.007761 	 2.056526 	 4.334257 
O 	 -2.135921 	 -0.565628 	 4.161854 
O 	 -1.182173 	 5.961465 	 2.527428 
O 	 4.900921 	 -3.715660 	 -4.904951 
O 	 7.008323 	 1.502659 	 5.654906 
O 	 4.433580 	 -2.826307 	 4.382531 
O 	 2.970455 	 3.268320 	 -4.505914 
O 	 6.842185 	 -5.939744 	 -2.136122 
O 	 -4.065144 	 4.855712 	 -6.816636 
O 	 5.167976 	 -5.977138 	 7.131780 
O 	 5.138166 	 6.568811 	 -6.404633 
O 	 4.059040 	 0.735534 	 -5.062616 
O 	 1.705381 	 -3.715221 	 0.952468 
O 	 4.207818 	 -1.417883 	 0.044417 
O 	 -6.591317 	 -5.565678 	 -6.797402 
O 	 0.548784 	 -3.065162 	 -7.077755 
O 	 -0.986604 	 -7.033369 	 -6.344099 
O 	 1.397896 	 0.732942 	 1.396108 
O 	 1.477490 	 -6.873385 	 1.638280 
O 	 -3.940805 	 0.403678 	 1.487852 
O 	 -3.807788 	 -6.488969 	 7.119256 
O 	 0.662138 	 4.273536 	 6.143196 
O 	 -0.341812 	 -5.403025 	 3.718852 
O 	 -5.861678 	 -3.731147 	 -3.225888 
O 	 -1.510691 	 1.330125 	 -3.577841 
O 	 4.921715 	 6.199294 	 -0.674970 
O 	 -1.359255 	 3.169907 	 0.082910 
O 	 -0.871261 	 5.782539 	 -0.818099 
O 	 5.259672 	 1.071273 	 3.040012 
O 	 6.347722 	 3.963296 	 7.244885 
O 	 -5.008506 	 -3.586773 	 2.626265 
O 	 2.099648 	 5.479564 	 0.810926 
O 	 0.823027 	 -1.493068 	 5.500024 
O 	 -6.035879 	 1.355707 	 -4.647234 
O 	 -1.216483 	 -0.331749 	 0.952554 
O 	 -0.128786 	 -7.097909 	 -2.562011 
O 	 -3.009077 	 2.871549 	 -2.071551 
O 	 -6.792018 	 -0.171418 	 2.808575 
O 	 4.684232 	 -5.845177 	 -0.391169 
O 	 6.681902 	 -1.195840 	 5.199658 
O 	 -6.858480 	 -4.751104 	 5.115994 
O 	 -6.742031 	 -1.418613 	 -7.320996 
O 	 2.562467 	 4.257122 	 3.417995 
O 	 6.792665 	 -2.965363 	 3.032306 
O 	 7.217733 	 3.384361 	 -0.766561 
O 	 -0.581915 	 5.718349 	 -4.652810 
O 	 -4.350665 	 -1.911420 	 4.873360 
O 	 -7.226575 	 4.722825 	 1.428043 
O 	 4.030192 	 -5.532031 	 2.597100 
O 	 -7.465806 	 -2.896297 	 -0.544691 
O 	 3.501567 	 -0.948168 	 2.604991 
O 	 -0.022540 	 -1.246206 	 -4.961029 
O 	 1.213674 	 -2.436654 	 -1.470057 
O 	 0.428185 	 3.666186 	 -2.922281 
O 	 -0.723407 	 -6.001055 	 0.410877 
O 	 1.487280 	 2.887524 	 -0.338452 
O 	 -0.353032 	 -2.733202 	 3.488379 
O 	 3.497324 	 1.963110 	 5.421330 
O 	 -3.833288 	 -6.690885 	 -0.200247 
O 	 -7.487951 	 -5.575120 	 0.813376 
O 	 6.272462 	 0.796418 	 -3.424483 
O 	 2.026754 	 6.936169 	 5.394277 
O 	 0.663366 	 1.094132 	 -6.271607 
K 	 -4.451958 	 3.807856 	 -4.572718 
