333
conformation = 31
H 	 -4.626643 	 6.226598 	 4.902380 
H 	 -4.728545 	 -7.154406 	 5.637257 
H 	 6.702873 	 3.254325 	 -4.429006 
H 	 -7.067457 	 2.765015 	 -5.240445 
H 	 -2.761282 	 6.268976 	 -2.432221 
H 	 -3.169719 	 7.282064 	 -3.552535 
H 	 -7.300377 	 7.405879 	 3.522050 
H 	 -5.795276 	 7.283467 	 3.331523 
H 	 -3.697614 	 4.940683 	 0.566947 
H 	 -4.261347 	 5.022999 	 -0.899348 
H 	 -6.412033 	 4.364824 	 -1.854162 
H 	 -5.847493 	 5.792906 	 -2.120305 
H 	 -0.603830 	 2.627983 	 3.769190 
H 	 -1.087621 	 4.054105 	 3.223944 
H 	 -4.224094 	 -1.459398 	 -1.522776 
H 	 -2.812624 	 -1.036961 	 -2.020856 
H 	 -0.779608 	 4.673585 	 7.226464 
H 	 -1.252335 	 5.242841 	 -6.387661 
H 	 -2.717439 	 -3.151341 	 -1.994532 
H 	 -1.491415 	 -3.982072 	 -1.687956 
H 	 5.310431 	 7.198395 	 4.605414 
H 	 5.207167 	 -6.410805 	 3.749720 
H 	 -0.134210 	 -1.197030 	 -1.655038 
H 	 -0.945732 	 -0.050357 	 -2.396146 
H 	 4.377377 	 -3.267305 	 -2.455288 
H 	 4.462068 	 -2.646181 	 -0.973757 
H 	 -6.174222 	 -1.553544 	 0.186576 
H 	 -4.978885 	 -0.542519 	 0.506221 
H 	 3.278084 	 7.138264 	 -6.556366 
H 	 2.319151 	 -6.630095 	 -6.051222 
H 	 -6.443383 	 -6.793262 	 -2.075056 
H 	 -4.966491 	 -6.927346 	 -1.594156 
H 	 5.452644 	 5.324208 	 -3.166604 
H 	 4.425933 	 4.028900 	 -3.336585 
H 	 -2.343890 	 1.806176 	 -5.559232 
H 	 -3.320293 	 0.716886 	 -6.097671 
H 	 0.208284 	 1.188429 	 5.256625 
H 	 -1.113558 	 0.411761 	 5.828629 
H 	 2.190071 	 0.153573 	 -7.313029 
H 	 3.276650 	 0.548010 	 6.530974 
H 	 -0.108384 	 -5.592175 	 5.532548 
H 	 0.210795 	 -4.672803 	 6.833878 
H 	 3.542278 	 -2.015619 	 7.280189 
H 	 3.658487 	 -3.565195 	 7.153740 
H 	 -4.922407 	 3.680779 	 5.164434 
H 	 -6.272920 	 4.188249 	 4.489185 
H 	 -3.432140 	 -6.861020 	 2.069648 
H 	 -3.431529 	 -6.934460 	 3.602211 
H 	 3.794174 	 3.041531 	 0.379912 
H 	 3.529482 	 3.411164 	 1.882165 
H 	 3.036292 	 7.040156 	 -2.331116 
H 	 2.232880 	 -6.891162 	 -3.120162 
H 	 1.043553 	 -4.290292 	 -4.102858 
H 	 0.272773 	 -5.335552 	 -3.154656 
H 	 3.404092 	 -5.654908 	 6.480387 
H 	 2.054059 	 -5.189757 	 5.887093 
H 	 -5.350978 	 -4.068527 	 -6.221339 
H 	 -5.151264 	 -3.947444 	 -4.716040 
H 	 -4.824650 	 1.306036 	 6.413829 
H 	 -5.405635 	 2.015120 	 -7.255498 
H 	 6.285065 	 -7.313995 	 -3.152059 
H 	 7.166071 	 6.821711 	 -4.241975 
H 	 -5.429790 	 0.823559 	 -0.985947 
H 	 -6.047655 	 2.306441 	 -0.831248 
H 	 -6.684337 	 6.048818 	 -6.968939 
H 	 -7.168766 	 5.180777 	 6.801507 
H 	 -4.769323 	 -1.779928 	 -5.488587 
H 	 -4.124436 	 -1.326004 	 -4.202932 
H 	 -3.278750 	 3.186240 	 2.253029 
H 	 -4.748570 	 3.591353 	 2.645883 
H 	 6.571462 	 3.128263 	 4.356723 
H 	 5.891228 	 4.461191 	 4.188285 
H 	 -2.621380 	 2.495026 	 6.430426 
H 	 -2.475160 	 3.125729 	 5.012352 
H 	 2.578107 	 4.284239 	 7.323343 
H 	 3.801920 	 3.318865 	 7.302588 
H 	 2.961479 	 0.526491 	 -0.885485 
H 	 2.812859 	 0.457950 	 -2.459285 
H 	 7.000596 	 -0.808239 	 -3.994353 
H 	 6.121253 	 -2.045769 	 -4.345079 
H 	 1.872792 	 -3.952007 	 -6.008536 
H 	 3.091402 	 -4.648780 	 -5.254977 
H 	 6.554915 	 1.367520 	 -0.125192 
H 	 7.150869 	 -0.028208 	 0.112196 
H 	 -2.243780 	 -3.228541 	 0.342061 
H 	 -1.976283 	 -4.031597 	 1.634670 
H 	 -5.611033 	 -7.355613 	 -4.256054 
H 	 -6.186331 	 -7.010735 	 -5.618725 
H 	 2.503584 	 -1.509241 	 -2.685206 
H 	 1.733624 	 -1.153777 	 -3.995559 
H 	 4.588144 	 5.296075 	 6.175142 
H 	 3.609565 	 5.950502 	 5.341488 
H 	 -3.615720 	 -5.216782 	 -4.933660 
H 	 -2.310754 	 -6.040599 	 -5.432150 
H 	 -1.006495 	 -3.693384 	 -4.267032 
H 	 -2.575401 	 -3.513702 	 -4.647060 
H 	 2.653466 	 1.935493 	 4.909018 
H 	 1.092015 	 1.662056 	 3.449821 
H 	 -2.889521 	 -1.264606 	 4.219925 
H 	 -2.454270 	 0.025152 	 3.469125 
H 	 -0.440043 	 6.585975 	 2.431079 
H 	 -1.971655 	 6.539706 	 2.506518 
H 	 5.255953 	 -4.621100 	 -5.191443 
H 	 4.661175 	 -3.416355 	 -5.812848 
H 	 6.481959 	 0.780773 	 5.437993 
H 	 -7.179327 	 1.263896 	 6.334405 
H 	 5.100482 	 -2.379179 	 4.985934 
H 	 3.936034 	 -3.405357 	 5.047591 
H 	 3.229544 	 2.351364 	 -4.807620 
H 	 3.232848 	 3.829585 	 -5.366941 
H 	 7.260288 	 -5.083504 	 -2.105556 
H 	 6.002591 	 -5.837058 	 -1.542171 
H 	 -4.449195 	 5.428033 	 -7.443642 
H 	 -3.178763 	 4.646257 	 -7.226848 
H 	 5.180267 	 -6.956692 	 7.282527 
H 	 5.701406 	 -5.804161 	 6.307854 
H 	 4.680525 	 5.722646 	 -6.524981 
H 	 5.411003 	 6.590300 	 -5.439644 
H 	 3.877974 	 0.506623 	 -5.990491 
H 	 3.547691 	 0.021623 	 -4.524126 
H 	 1.394405 	 -3.343651 	 1.790799 
H 	 1.376561 	 -4.636840 	 1.025683 
H 	 4.899803 	 -0.751804 	 -0.036256 
H 	 3.825864 	 -1.442649 	 0.960296 
H 	 -6.532144 	 -5.768015 	 7.148586 
H 	 -7.566153 	 -5.705403 	 -6.756964 
H 	 0.082026 	 -2.501606 	 -6.458155 
H 	 0.621299 	 -2.542227 	 7.002277 
H 	 -0.453878 	 -6.935754 	 -7.161927 
H 	 -0.443359 	 7.387317 	 -5.679054 
H 	 0.488354 	 0.273009 	 1.325536 
H 	 2.106932 	 0.060253 	 1.432605 
H 	 2.286454 	 -6.542491 	 2.090910 
H 	 1.814060 	 7.208252 	 1.282290 
H 	 -2.958427 	 0.336171 	 1.403992 
H 	 -4.024498 	 1.361928 	 1.307221 
H 	 -4.130547 	 -5.927393 	 -7.017381 
H 	 -3.150833 	 -7.085244 	 -7.388229 
H 	 0.488209 	 3.524562 	 5.505688 
H 	 0.850729 	 5.088882 	 5.611820 
H 	 -1.175632 	 -5.842480 	 3.415912 
H 	 -0.506025 	 -4.494880 	 3.426968 
H 	 -6.546316 	 -3.026770 	 -3.295825 
H 	 -5.027014 	 -3.403936 	 -2.741156 
H 	 -0.728357 	 1.921678 	 -3.561725 
H 	 -2.192315 	 1.867084 	 -3.106190 
H 	 4.960839 	 5.308524 	 -1.146830 
H 	 4.603901 	 5.922909 	 0.220515 
H 	 -0.378673 	 3.092815 	 0.096809 
H 	 -1.608032 	 3.296837 	 1.033964 
H 	 -0.326210 	 5.518269 	 -0.059428 
H 	 -1.723565 	 5.299285 	 -0.689231 
H 	 6.167835 	 0.838271 	 2.902703 
H 	 5.025641 	 1.663706 	 2.262994 
H 	 6.032740 	 3.143024 	 6.781407 
H 	 6.698430 	 3.598562 	 -6.774099 
H 	 -4.324226 	 -3.600305 	 1.923278 
H 	 -4.866275 	 -4.308617 	 3.317714 
H 	 2.020426 	 5.193174 	 1.783898 
H 	 2.085805 	 4.627893 	 0.278089 
H 	 0.336718 	 -0.606339 	 5.695851 
H 	 1.747791 	 -1.288918 	 5.704776 
H 	 -5.535776 	 0.548702 	 -4.870545 
H 	 -6.503983 	 1.136124 	 -3.816275 
H 	 -1.200131 	 -0.416937 	 -0.007676 
H 	 -1.536603 	 -1.195749 	 1.286363 
H 	 -0.143525 	 7.012973 	 -3.170545 
H 	 -0.240368 	 7.337491 	 -1.697879 
H 	 -3.908165 	 2.544908 	 -1.750462 
H 	 -2.546722 	 2.923850 	 -1.229936 
H 	 -5.829814 	 0.138891 	 2.788724 
H 	 -6.819716 	 -1.140391 	 2.607358 
H 	 4.425444 	 -5.007709 	 -0.799733 
H 	 4.160991 	 -6.529049 	 -0.858502 
H 	 7.074326 	 -1.392731 	 6.058935 
H 	 -7.534067 	 -0.987899 	 4.520086 
H 	 -7.390805 	 -4.269326 	 4.433462 
H 	 -7.098173 	 -5.707634 	 4.932656 
H 	 -6.261460 	 -0.556181 	 -7.405828 
H 	 -7.284941 	 -1.338060 	 -6.549377 
H 	 3.395300 	 4.571231 	 3.839560 
H 	 2.136746 	 3.608376 	 4.016547 
H 	 5.857443 	 -3.241221 	 3.107567 
H 	 7.045360 	 -3.435361 	 2.179166 
H 	 6.511518 	 3.717289 	 -1.383630 
H 	 7.256964 	 3.986767 	 0.076294 
H 	 -0.236382 	 4.979508 	 -4.070681 
H 	 -1.439740 	 5.999546 	 -4.146623 
H 	 -4.542170 	 -2.695537 	 5.420217 
H 	 -4.767517 	 -2.227978 	 3.990441 
H 	 7.256974 	 4.384311 	 2.293337 
H 	 -7.186580 	 5.679673 	 1.565261 
H 	 4.520059 	 -5.370710 	 1.750521 
H 	 3.719847 	 -4.691847 	 3.043680 
H 	 -7.366088 	 -3.681644 	 -0.005759 
H 	 6.513914 	 -2.936222 	 -0.903433 
H 	 4.162507 	 -0.197664 	 2.807031 
H 	 3.735105 	 -1.564987 	 3.307681 
H 	 -0.949023 	 -1.635031 	 -4.888043 
H 	 -0.130992 	 -0.361549 	 -5.299412 
H 	 0.952254 	 -3.139914 	 -2.122962 
H 	 1.422892 	 -2.894644 	 -0.652735 
H 	 0.455729 	 3.784869 	 -1.970709 
H 	 1.348156 	 3.623209 	 -3.349920 
H 	 -0.005615 	 -6.285437 	 0.939131 
H 	 -0.356414 	 -6.062391 	 -0.481908 
H 	 1.587485 	 2.155653 	 0.359558 
H 	 1.772816 	 2.380386 	 -1.130332 
H 	 -1.103564 	 -2.120727 	 3.305588 
H 	 0.107774 	 -2.224253 	 4.243012 
H 	 4.159443 	 2.211343 	 4.794643 
H 	 0.121715 	 1.332639 	 -7.070934 
H 	 -3.004758 	 -6.186082 	 -0.334655 
H 	 -3.552386 	 7.287785 	 -0.149779 
H 	 -7.119788 	 -6.219284 	 1.412215 
H 	 6.650889 	 -6.055845 	 0.471761 
H 	 5.920658 	 0.741738 	 -2.510066 
H 	 5.484137 	 0.761263 	 -3.949561 
H 	 1.960128 	 7.403069 	 6.234045 
H 	 1.846827 	 -7.327460 	 4.677663 
H 	 0.941658 	 1.937195 	 -5.921903 
O 	 -4.612410 	 7.200520 	 4.817196 
O 	 7.207050 	 3.503845 	 -5.269246 
O 	 -2.862574 	 6.362512 	 -3.367544 
O 	 -6.616897 	 7.220477 	 2.833880 
O 	 -3.706904 	 5.481888 	 -0.242083 
O 	 -5.640415 	 4.824991 	 -2.255973 
O 	 -1.314621 	 3.106889 	 3.230907 
O 	 -3.627551 	 -1.455111 	 -2.301863 
O 	 -1.436895 	 4.500704 	 -6.937194 
O 	 -2.397394 	 -3.853798 	 -1.362276 
O 	 5.835225 	 -6.985229 	 4.224684 
O 	 -0.974219 	 -0.673754 	 -1.644485 
O 	 4.666329 	 -3.447985 	 -1.571336 
O 	 -5.568180 	 -0.892903 	 -0.199209 
O 	 2.363061 	 7.420614 	 -6.549631 
O 	 -5.689611 	 -7.372979 	 -2.077129 
O 	 5.174820 	 4.441467 	 -2.891197 
O 	 -3.096263 	 1.662267 	 -6.169287 
O 	 -0.268742 	 0.758717 	 6.091874 
O 	 3.096960 	 -0.083207 	 7.302287 
O 	 0.195153 	 -5.595904 	 6.472126 
O 	 4.182346 	 -2.783427 	 7.356595 
O 	 -5.285438 	 4.220303 	 4.502616 
O 	 -2.947785 	 -6.541109 	 2.863134 
O 	 4.171606 	 3.037169 	 1.265907 
O 	 3.091915 	 -6.931992 	 -2.677927 
O 	 0.398133 	 -4.338477 	 -3.331948 
O 	 2.985048 	 -5.353758 	 5.626382 
O 	 -4.628029 	 -3.958390 	 -5.582715 
O 	 -5.603640 	 1.325261 	 6.989817 
O 	 6.314616 	 6.837516 	 -3.752696 
O 	 -5.191710 	 1.772930 	 -1.031428 
O 	 -6.605326 	 5.980316 	 6.961227 
O 	 -4.326183 	 -1.007375 	 -5.104345 
O 	 -4.117501 	 3.444795 	 1.846553 
O 	 6.730199 	 3.990766 	 4.049236 
O 	 -3.178865 	 2.758289 	 5.621936 
O 	 3.442560 	 4.096592 	 -7.166675 
O 	 3.108252 	 1.057488 	 -1.706456 
O 	 7.072311 	 -1.784856 	 -4.244462 
O 	 2.142484 	 -4.730833 	 -5.508299 
O 	 6.372683 	 0.431573 	 -0.197362 
O 	 -2.321864 	 -3.206449 	 1.311527 
O 	 -6.074622 	 7.127630 	 -5.007770 
O 	 2.637938 	 -1.162313 	 -3.635779 
O 	 4.446471 	 5.426126 	 5.243777 
O 	 -2.869963 	 -5.777270 	 -4.627241 
O 	 -1.786479 	 -3.066873 	 -4.339626 
O 	 1.012536 	 2.057912 	 4.333500 
O 	 -2.138450 	 -0.562247 	 4.158817 
O 	 -1.175452 	 5.950433 	 2.534300 
O 	 4.897489 	 -3.713038 	 -4.892542 
O 	 7.020418 	 1.511296 	 5.656991 
O 	 4.422537 	 -2.825532 	 4.379694 
O 	 2.959997 	 3.278850 	 -4.511219 
O 	 6.832743 	 -5.925925 	 -2.133350 
O 	 -4.056390 	 4.844774 	 -6.825215 
O 	 5.182743 	 -5.975031 	 7.131919 
O 	 5.139272 	 6.567542 	 -6.403484 
O 	 4.048300 	 0.731071 	 -5.067572 
O 	 1.700562 	 -3.721635 	 0.936378 
O 	 4.213873 	 -1.416600 	 0.044140 
O 	 -6.583337 	 -5.551478 	 -6.807992 
O 	 0.546468 	 -3.079090 	 -7.084386 
O 	 -0.989067 	 -7.020987 	 -6.363752 
O 	 1.387159 	 0.740881 	 1.395792 
O 	 1.474432 	 -6.864332 	 1.643868 
O 	 -3.934638 	 0.380169 	 1.478651 
O 	 -3.812542 	 -6.484837 	 7.108672 
O 	 0.646336 	 4.276830 	 6.153533 
O 	 -0.348734 	 -5.397312 	 3.725678 
O 	 -5.854529 	 -3.726812 	 -3.221913 
O 	 -1.528609 	 1.334742 	 -3.580503 
O 	 4.934602 	 6.194749 	 -0.677617 
O 	 -1.358696 	 3.166932 	 0.080312 
O 	 -0.873579 	 5.787299 	 -0.814679 
O 	 5.260765 	 1.078904 	 3.052291 
O 	 6.347774 	 3.957203 	 7.239780 
O 	 -4.996444 	 -3.581159 	 2.620014 
O 	 2.107218 	 5.471300 	 0.814017 
O 	 0.808300 	 -1.496284 	 5.501431 
O 	 -6.043217 	 1.377731 	 -4.627569 
O 	 -1.204585 	 -0.330163 	 0.959576 
O 	 -0.131891 	 -7.087874 	 -2.563070 
O 	 -3.015599 	 2.875697 	 -2.068602 
O 	 -6.801871 	 -0.176903 	 2.802669 
O 	 4.677143 	 -5.854192 	 -0.403274 
O 	 6.676917 	 -1.196196 	 5.187032 
O 	 -6.842222 	 -4.766042 	 5.121999 
O 	 -6.734330 	 -1.408483 	 -7.314034 
O 	 2.557748 	 4.266657 	 3.419445 
O 	 6.805542 	 -2.988490 	 3.023160 
O 	 7.205800 	 3.381513 	 -0.779369 
O 	 -0.599410 	 5.734527 	 -4.643496 
O 	 -4.354133 	 -1.907398 	 4.865768 
O 	 -7.219982 	 4.720840 	 1.435836 
O 	 4.045116 	 -5.535597 	 2.608356 
O 	 -7.469473 	 -2.899813 	 -0.549428 
O 	 3.497158 	 -0.933688 	 2.604478 
O 	 -0.012430 	 -1.234916 	 -4.960985 
O 	 1.198481 	 -2.432076 	 -1.473118 
O 	 0.437461 	 3.667475 	 -2.929619 
O 	 -0.721138 	 -5.994108 	 0.386661 
O 	 1.489236 	 2.902536 	 -0.346205 
O 	 -0.368503 	 -2.719487 	 3.497991 
O 	 3.485672 	 1.959421 	 5.443176 
O 	 -3.840823 	 -6.683940 	 -0.198807 
O 	 -7.490724 	 -5.558411 	 0.800040 
O 	 6.272144 	 0.796236 	 -3.425522 
O 	 2.015241 	 6.938589 	 5.405471 
O 	 0.676980 	 1.088917 	 -6.287282 
K 	 -4.448477 	 3.813314 	 -4.572720 
