333
conformation = 56
H 	 -4.589604 	 6.246901 	 4.934961 
H 	 -4.434189 	 -7.365503 	 5.853162 
H 	 6.808924 	 3.287640 	 -4.299725 
H 	 -6.943820 	 2.692582 	 -5.138680 
H 	 -2.881996 	 6.177236 	 -2.457138 
H 	 -2.855794 	 7.368623 	 -3.567960 
H 	 -7.388510 	 7.376793 	 3.371118 
H 	 -5.899619 	 7.034772 	 3.568006 
H 	 -3.732545 	 4.944927 	 0.727276 
H 	 -4.221740 	 5.117845 	 -0.766262 
H 	 -6.254305 	 4.355886 	 -1.732872 
H 	 -5.647485 	 5.835320 	 -2.093179 
H 	 -0.357946 	 2.735614 	 3.780595 
H 	 -1.222015 	 4.006673 	 3.309908 
H 	 -4.035749 	 -1.112393 	 -1.407578 
H 	 -2.574299 	 -1.288183 	 -1.863710 
H 	 -0.630746 	 4.401482 	 7.437243 
H 	 -0.927512 	 4.834655 	 -5.957568 
H 	 -2.621765 	 -3.007738 	 -1.791035 
H 	 -1.440100 	 -3.897591 	 -1.700263 
H 	 5.472438 	 6.955851 	 4.645403 
H 	 5.383168 	 -6.568917 	 3.743091 
H 	 -0.029114 	 -1.194104 	 -1.744768 
H 	 -0.829739 	 0.070436 	 -2.233926 
H 	 4.534485 	 -3.353048 	 -2.383494 
H 	 4.419701 	 -2.694255 	 -0.950633 
H 	 -5.934707 	 -1.599657 	 0.126706 
H 	 -4.826066 	 -0.571855 	 0.633856 
H 	 3.360328 	 7.235798 	 -6.387797 
H 	 2.377364 	 -6.465764 	 -6.336435 
H 	 -6.400996 	 -6.880790 	 -1.551814 
H 	 -4.846903 	 -6.922351 	 -1.423607 
H 	 5.779144 	 5.157212 	 -3.175731 
H 	 4.452234 	 4.253789 	 -3.230627 
H 	 -2.132188 	 1.923304 	 -5.581341 
H 	 -2.950050 	 0.752108 	 -5.882791 
H 	 0.353620 	 1.340217 	 5.632900 
H 	 -1.058151 	 0.693444 	 5.921576 
H 	 2.496723 	 0.336191 	 -7.094690 
H 	 3.653518 	 0.522234 	 6.776162 
H 	 -0.080275 	 -5.597309 	 5.743182 
H 	 -0.154504 	 -4.910675 	 7.168513 
H 	 3.955188 	 -1.892808 	 -7.365996 
H 	 3.652487 	 -3.380666 	 7.257907 
H 	 -4.765233 	 3.473627 	 5.191498 
H 	 -6.071518 	 4.159568 	 4.733340 
H 	 -3.330056 	 -6.322073 	 2.311326 
H 	 -3.426608 	 -6.934687 	 3.804459 
H 	 3.759968 	 2.618876 	 0.614482 
H 	 3.831963 	 3.405816 	 1.989157 
H 	 3.122701 	 7.071219 	 -2.021908 
H 	 2.222422 	 -6.791256 	 -2.809924 
H 	 1.285493 	 -4.384012 	 -3.880830 
H 	 0.300667 	 -5.190337 	 -2.866273 
H 	 3.746427 	 -5.715788 	 6.341052 
H 	 2.163211 	 -5.425120 	 6.223095 
H 	 -5.370481 	 -4.251548 	 -5.998435 
H 	 -4.935606 	 -4.036163 	 -4.536844 
H 	 -4.605679 	 1.225088 	 6.542399 
H 	 -5.162860 	 1.909894 	 -7.185684 
H 	 6.446309 	 -7.294509 	 -3.065721 
H 	 -7.467429 	 6.867546 	 -4.048009 
H 	 -5.419558 	 0.926527 	 -0.545086 
H 	 -5.800529 	 2.418658 	 -0.639782 
H 	 -6.435290 	 5.944293 	 -6.840588 
H 	 -7.278940 	 5.200343 	 6.989662 
H 	 -4.709370 	 -1.794679 	 -5.431236 
H 	 -3.999526 	 -1.383429 	 -4.106174 
H 	 -2.993700 	 3.201505 	 2.328351 
H 	 -4.370738 	 3.892108 	 2.693001 
H 	 6.959575 	 3.140553 	 4.753329 
H 	 6.128444 	 4.582645 	 4.567328 
H 	 -2.490841 	 2.521510 	 6.495973 
H 	 -2.499468 	 2.825032 	 4.943704 
H 	 2.706616 	 4.453270 	 -7.307144 
H 	 3.716564 	 3.368310 	 7.208672 
H 	 3.685876 	 0.348060 	 -1.058231 
H 	 2.973280 	 0.744724 	 -2.421224 
H 	 6.780720 	 -1.253608 	 -3.479108 
H 	 6.474376 	 -2.572093 	 -4.249320 
H 	 2.096703 	 -4.133637 	 -5.968612 
H 	 3.226731 	 -4.373656 	 -4.966057 
H 	 6.710395 	 1.289541 	 -0.193918 
H 	 -7.426460 	 -0.070591 	 0.079233 
H 	 -2.272793 	 -3.830628 	 0.576195 
H 	 -1.656784 	 -3.966001 	 1.963227 
H 	 -5.512983 	 7.331980 	 -3.929936 
H 	 -5.782269 	 -6.853455 	 -5.281743 
H 	 2.364468 	 -1.538322 	 -2.734661 
H 	 1.837272 	 -1.176126 	 -4.165137 
H 	 4.818053 	 4.832562 	 6.088430 
H 	 3.765506 	 5.971775 	 5.583434 
H 	 -3.201512 	 -5.436008 	 -5.208813 
H 	 -1.905558 	 -6.109112 	 -4.816011 
H 	 -1.084422 	 -3.799147 	 -3.973593 
H 	 -2.405840 	 -3.332832 	 -4.638937 
H 	 2.701068 	 1.910940 	 5.100969 
H 	 1.187572 	 1.581441 	 3.623787 
H 	 -2.887164 	 -0.655162 	 4.649097 
H 	 -2.025089 	 0.129014 	 3.609328 
H 	 -0.254077 	 6.533702 	 2.620741 
H 	 -1.751415 	 6.731859 	 2.524716 
H 	 5.668334 	 -4.415215 	 -4.703760 
H 	 5.137829 	 -3.499605 	 -5.786709 
H 	 6.845605 	 0.480352 	 5.608931 
H 	 -7.013303 	 1.489788 	 6.170262 
H 	 5.314121 	 -2.384240 	 5.051744 
H 	 4.267254 	 -3.596519 	 5.018743 
H 	 3.671834 	 2.437687 	 -4.469285 
H 	 3.193733 	 3.640564 	 -5.170805 
H 	 7.175056 	 -5.048379 	 -2.376243 
H 	 6.297973 	 -5.940646 	 -1.368617 
H 	 -4.609749 	 5.392974 	 -7.332142 
H 	 -3.071885 	 4.850798 	 -7.023037 
H 	 5.422412 	 -6.799355 	 -7.120819 
H 	 5.724956 	 -6.089683 	 6.428329 
H 	 5.386863 	 5.621089 	 -6.539155 
H 	 5.579857 	 6.665787 	 -5.347657 
H 	 4.037980 	 0.383025 	 -5.835704 
H 	 3.773151 	 0.156535 	 -4.308898 
H 	 1.373663 	 -3.226571 	 1.908057 
H 	 1.183522 	 -4.381083 	 1.091894 
H 	 5.145860 	 -0.829454 	 0.173946 
H 	 4.092337 	 -1.451265 	 1.124264 
H 	 -6.539088 	 -5.288535 	 7.353512 
H 	 -7.484245 	 -5.492187 	 -6.442132 
H 	 0.259398 	 -2.466595 	 -6.157804 
H 	 0.567832 	 -2.477733 	 7.119566 
H 	 -0.311443 	 -6.874004 	 -6.913230 
H 	 -0.355765 	 7.141185 	 -5.638116 
H 	 0.637664 	 0.402099 	 1.563828 
H 	 2.103717 	 -0.050351 	 1.887516 
H 	 2.250294 	 -6.422843 	 2.327806 
H 	 1.984030 	 7.067451 	 1.511905 
H 	 -2.914317 	 0.297670 	 1.338333 
H 	 -3.975335 	 1.471938 	 1.481089 
H 	 -4.033291 	 -5.955206 	 -6.884135 
H 	 -2.814523 	 -6.835013 	 -7.224148 
H 	 1.157648 	 3.589949 	 5.614197 
H 	 1.058047 	 5.063262 	 5.680916 
H 	 -1.062795 	 -5.728594 	 3.550959 
H 	 -0.285880 	 -4.424427 	 3.851612 
H 	 -6.337280 	 -2.958350 	 -3.337229 
H 	 -5.107785 	 -3.457074 	 -2.449681 
H 	 -0.421071 	 1.771576 	 -3.331227 
H 	 -1.891678 	 1.842217 	 -2.780459 
H 	 4.959333 	 5.480345 	 -1.140990 
H 	 4.450405 	 5.968187 	 0.281236 
H 	 -0.295921 	 3.088491 	 -0.022651 
H 	 -1.245438 	 3.232584 	 1.218162 
H 	 -0.221353 	 5.831116 	 0.145550 
H 	 -1.686956 	 5.713317 	 -0.428283 
H 	 6.339841 	 0.846676 	 2.946445 
H 	 5.123069 	 1.623724 	 2.353933 
H 	 6.498268 	 3.192857 	 6.847902 
H 	 6.573852 	 3.689332 	 -6.617612 
H 	 -4.028845 	 -3.696726 	 2.437200 
H 	 -5.035232 	 -4.374759 	 3.336289 
H 	 2.283151 	 4.923627 	 1.691978 
H 	 1.911689 	 4.973097 	 0.202004 
H 	 0.493503 	 -0.691693 	 5.893225 
H 	 1.966765 	 -1.266204 	 5.869577 
H 	 -5.319736 	 0.458269 	 -4.699764 
H 	 -6.598170 	 0.941184 	 -4.027886 
H 	 -0.964091 	 -0.197028 	 0.049409 
H 	 -1.210723 	 -1.321133 	 1.153733 
H 	 0.176128 	 7.421695 	 -3.330006 
H 	 -0.589173 	 7.125711 	 -1.948839 
H 	 -3.603744 	 2.544482 	 -1.384451 
H 	 -2.131595 	 3.318326 	 -1.362004 
H 	 -5.811758 	 0.084124 	 2.517703 
H 	 -6.808297 	 -1.068108 	 2.744838 
H 	 4.570762 	 -4.921734 	 -0.670162 
H 	 4.258371 	 -6.417044 	 -0.625997 
H 	 7.149171 	 -1.525486 	 6.320215 
H 	 -7.317136 	 -1.049450 	 4.769765 
H 	 -7.095258 	 -3.927212 	 4.674935 
H 	 -6.919475 	 -5.398520 	 4.600655 
H 	 -6.322168 	 -0.510878 	 -7.223058 
H 	 -7.300367 	 -1.555915 	 -6.430489 
H 	 3.339116 	 4.559522 	 4.213278 
H 	 2.313444 	 3.364442 	 3.858603 
H 	 5.921744 	 -2.821198 	 3.388230 
H 	 6.991737 	 -3.674928 	 2.680101 
H 	 6.656636 	 3.682293 	 -1.154478 
H 	 -7.475444 	 4.030061 	 0.134945 
H 	 -0.107226 	 5.053987 	 -3.844763 
H 	 -1.256686 	 5.946547 	 -4.197141 
H 	 -4.519810 	 -2.552859 	 5.704947 
H 	 -4.422893 	 -2.364289 	 4.206339 
H 	 7.384040 	 4.163817 	 2.203662 
H 	 -6.899135 	 5.649553 	 1.960970 
H 	 4.113834 	 -5.553199 	 1.702332 
H 	 4.066847 	 -4.582775 	 2.811144 
H 	 -7.274855 	 -3.749935 	 0.091542 
H 	 6.706286 	 -2.890618 	 -0.804882 
H 	 4.282588 	 -0.298457 	 2.933661 
H 	 3.862145 	 -1.700056 	 3.406871 
H 	 -0.732702 	 -1.669346 	 -4.485445 
H 	 -0.107400 	 -0.381856 	 -5.213276 
H 	 1.104213 	 -3.212282 	 -1.843623 
H 	 1.491552 	 -2.786247 	 -0.382905 
H 	 0.575006 	 4.138253 	 -1.897860 
H 	 1.397208 	 3.516696 	 -3.121500 
H 	 0.213276 	 -6.438329 	 1.148318 
H 	 -0.343872 	 -5.903397 	 -0.286798 
H 	 1.479139 	 2.125115 	 0.505120 
H 	 2.000984 	 2.257179 	 -0.867410 
H 	 -0.957807 	 -2.262088 	 3.694683 
H 	 0.359899 	 -2.543334 	 4.334027 
H 	 4.268804 	 1.998362 	 4.666044 
H 	 0.327312 	 1.145485 	 -6.976937 
H 	 -2.860740 	 -6.129440 	 -0.095158 
H 	 -3.377179 	 7.248221 	 -0.059829 
H 	 -7.104543 	 -6.496209 	 1.445239 
H 	 6.627278 	 -5.807365 	 0.625948 
H 	 5.752263 	 0.901595 	 -2.579094 
H 	 5.812122 	 0.881262 	 -4.130764 
H 	 2.090735 	 7.190957 	 6.470637 
H 	 2.181233 	 -7.184541 	 4.885370 
H 	 0.737505 	 2.085212 	 -5.788175 
O 	 -4.481739 	 7.224514 	 4.921319 
O 	 7.392283 	 3.538398 	 -5.039013 
O 	 -2.694009 	 6.399384 	 -3.396984 
O 	 -6.575779 	 7.200331 	 2.857486 
O 	 -3.619077 	 5.525308 	 -0.073974 
O 	 -5.532076 	 4.845303 	 -2.121977 
O 	 -1.260079 	 3.020957 	 3.409047 
O 	 -3.516464 	 -1.519098 	 -2.155149 
O 	 -1.344817 	 4.487702 	 -6.825373 
O 	 -2.301846 	 -3.787550 	 -1.293992 
O 	 5.926924 	 -7.092760 	 4.386209 
O 	 -0.851814 	 -0.685239 	 -1.554304 
O 	 4.864717 	 -3.428819 	 -1.471602 
O 	 -5.424762 	 -0.770560 	 -0.149455 
O 	 2.405279 	 -7.405736 	 -6.548494 
O 	 -5.599752 	 -7.303523 	 -1.958761 
O 	 5.323314 	 4.381830 	 -2.705625 
O 	 -2.926093 	 1.702324 	 -6.080498 
O 	 -0.166305 	 0.729996 	 6.313192 
O 	 3.333323 	 -0.088796 	 7.470092 
O 	 0.263267 	 -5.656990 	 6.685341 
O 	 4.295743 	 -2.786929 	 -7.284837 
O 	 -5.108107 	 4.237402 	 4.655137 
O 	 -2.801156 	 -6.605985 	 3.063615 
O 	 4.375306 	 3.012619 	 1.281320 
O 	 3.152610 	 -6.980598 	 -2.564631 
O 	 0.549814 	 -4.333797 	 -3.230565 
O 	 3.044145 	 -5.351537 	 5.763042 
O 	 -4.556071 	 -4.028214 	 -5.467373 
O 	 -5.487572 	 1.355977 	 6.994066 
O 	 6.506460 	 6.827217 	 -3.653125 
O 	 -5.107232 	 1.776269 	 -0.880628 
O 	 -6.612914 	 5.912720 	 7.093109 
O 	 -4.267167 	 -1.008990 	 -5.026555 
O 	 -3.885429 	 3.488727 	 1.969454 
O 	 6.860165 	 4.012182 	 4.184315 
O 	 -3.039094 	 2.768418 	 5.753033 
O 	 3.633158 	 4.182401 	 -7.145793 
O 	 3.164826 	 1.069246 	 -1.550940 
O 	 7.139939 	 -1.885970 	 -4.130438 
O 	 2.388174 	 -4.805918 	 -5.298581 
O 	 6.537430 	 0.331101 	 -0.058390 
O 	 -2.213085 	 -3.324221 	 1.446169 
O 	 -5.918444 	 7.206851 	 -4.809611 
O 	 2.624857 	 -1.118210 	 -3.558032 
O 	 4.576950 	 5.441771 	 5.306365 
O 	 -2.758806 	 -5.776106 	 -4.401313 
O 	 -1.625321 	 -3.019700 	 -4.187004 
O 	 1.103810 	 2.060708 	 4.475889 
O 	 -1.970789 	 -0.560774 	 4.309722 
O 	 -1.077494 	 6.012268 	 2.614634 
O 	 5.033095 	 -3.726220 	 -4.815558 
O 	 7.016430 	 1.498623 	 5.763134 
O 	 4.592344 	 -2.830015 	 4.529602 
O 	 3.137962 	 3.231453 	 -4.316999 
O 	 7.025866 	 -5.964715 	 -2.039874 
O 	 -3.995728 	 4.929740 	 -6.670169 
O 	 5.240573 	 -5.967961 	 7.280012 
O 	 5.232691 	 6.572893 	 -6.277810 
O 	 4.233632 	 0.763560 	 -4.911120 
O 	 1.879241 	 -3.665287 	 1.147582 
O 	 4.314669 	 -1.375969 	 0.157561 
O 	 -6.516126 	 -5.630251 	 -6.623833 
O 	 0.676707 	 -2.997205 	 -6.934481 
O 	 -0.853266 	 -7.100452 	 -6.102902 
O 	 1.552859 	 0.699687 	 1.544190 
O 	 1.628068 	 -6.921368 	 1.761698 
O 	 -3.835527 	 0.535606 	 1.691852 
O 	 -3.648970 	 -6.504845 	 7.307324 
O 	 0.876382 	 4.269103 	 6.250163 
O 	 -0.184099 	 -5.441743 	 3.823899 
O 	 -5.793081 	 -3.730994 	 -3.103688 
O 	 -1.293161 	 1.310977 	 -3.430021 
O 	 4.971797 	 6.237959 	 -0.526537 
O 	 -1.245815 	 3.192141 	 0.256332 
O 	 -0.747420 	 5.748152 	 -0.673251 
O 	 5.396949 	 1.044372 	 3.102547 
O 	 6.447062 	 3.995991 	 7.375486 
O 	 -4.969186 	 -3.568106 	 2.778946 
O 	 2.177185 	 5.498072 	 0.945022 
O 	 1.045073 	 -1.475927 	 5.655223 
O 	 -5.866491 	 1.273966 	 -4.633057 
O 	 -1.173275 	 -0.359910 	 1.046101 
O 	 0.020134 	 -7.144412 	 -2.408310 
O 	 -2.862739 	 2.894439 	 -1.945804 
O 	 -6.608331 	 -0.136583 	 2.967045 
O 	 4.865958 	 -5.765747 	 -0.163003 
O 	 6.868054 	 -1.197154 	 5.431142 
O 	 -6.803469 	 -4.671106 	 5.226020 
O 	 -6.670786 	 -1.436049 	 -7.186754 
O 	 2.707463 	 4.214840 	 3.505673 
O 	 6.893834 	 -2.858226 	 3.177893 
O 	 7.394998 	 3.383326 	 -0.588292 
O 	 -0.338707 	 5.672580 	 -4.560825 
O 	 -4.248611 	 -1.942690 	 5.033529 
O 	 -7.154528 	 4.761949 	 1.568682 
O 	 4.081125 	 -5.533010 	 2.668264 
O 	 -7.308041 	 -2.878188 	 -0.363513 
O 	 3.639063 	 -1.015419 	 2.730882 
O 	 0.082914 	 -1.270971 	 -4.840726 
O 	 1.408634 	 -2.440509 	 -1.335602 
O 	 0.541888 	 3.674705 	 -2.756605 
O 	 -0.601237 	 -6.012458 	 0.643343 
O 	 1.596173 	 2.818917 	 -0.154629 
O 	 -0.160659 	 -2.780993 	 3.560247 
O 	 3.666511 	 1.995469 	 5.456609 
O 	 -3.668840 	 -6.700486 	 -0.063134 
O 	 -7.356346 	 -5.629925 	 1.027695 
O 	 6.384978 	 0.799951 	 -3.278488 
O 	 2.182591 	 6.941815 	 5.500171 
O 	 0.722167 	 1.127081 	 -6.063756 
K 	 -4.344446 	 3.792205 	 -4.424329 
