333
conformation = 21
H 	 -4.850003 	 6.285167 	 5.079968 
H 	 -4.622219 	 -7.218921 	 5.691462 
H 	 6.509005 	 3.527058 	 -4.514774 
H 	 -7.233956 	 2.713941 	 -5.210690 
H 	 -2.719254 	 6.434106 	 -2.369294 
H 	 -3.160925 	 7.296275 	 -3.542881 
H 	 -7.380741 	 7.331174 	 3.540566 
H 	 -5.821381 	 7.428242 	 3.398421 
H 	 -3.855877 	 4.904313 	 0.514920 
H 	 -4.421832 	 5.157300 	 -0.875267 
H 	 -6.357401 	 4.341191 	 -1.711160 
H 	 -5.778663 	 5.834367 	 -2.138589 
H 	 -0.533026 	 2.675253 	 3.569341 
H 	 -1.027761 	 4.132973 	 3.188426 
H 	 -4.275026 	 -1.349393 	 -1.539147 
H 	 -2.925548 	 -0.888626 	 -2.001438 
H 	 -0.802970 	 4.570141 	 7.194407 
H 	 -1.357419 	 5.291386 	 -6.343118 
H 	 -2.771148 	 -3.213059 	 -1.994440 
H 	 -1.534251 	 -4.003287 	 -1.719267 
H 	 5.383999 	 7.288060 	 4.674329 
H 	 5.131387 	 -6.333207 	 3.764851 
H 	 -0.239070 	 -1.266332 	 -1.649514 
H 	 -0.954740 	 -0.057301 	 -2.412878 
H 	 4.321656 	 -3.176114 	 -2.444610 
H 	 4.260953 	 -2.634101 	 -0.945880 
H 	 -6.202990 	 -1.644695 	 0.047042 
H 	 -5.173193 	 -0.579043 	 0.648769 
H 	 3.296907 	 7.252283 	 -6.367660 
H 	 2.242636 	 -6.633938 	 -5.961589 
H 	 -6.515306 	 -6.816649 	 -2.117005 
H 	 -5.151526 	 -6.978149 	 -1.357234 
H 	 5.274193 	 5.380728 	 -3.343519 
H 	 4.439152 	 4.129192 	 -3.424158 
H 	 -2.426296 	 1.611844 	 -5.470801 
H 	 -3.552182 	 0.791865 	 -5.953686 
H 	 0.181389 	 1.335413 	 5.219169 
H 	 -1.175478 	 0.481373 	 5.677535 
H 	 2.078580 	 0.182469 	 -7.319870 
H 	 3.215666 	 0.685930 	 6.538748 
H 	 -0.140046 	 -5.334540 	 5.508750 
H 	 0.203083 	 -4.637992 	 6.845019 
H 	 3.467377 	 -1.983819 	 7.330144 
H 	 3.669616 	 -3.601068 	 7.103328 
H 	 -5.053718 	 3.815915 	 5.265717 
H 	 -6.346791 	 4.222747 	 4.590616 
H 	 -3.418152 	 -6.809376 	 1.977548 
H 	 -3.464472 	 -6.881793 	 3.589952 
H 	 3.810482 	 3.266906 	 0.424188 
H 	 3.391690 	 3.473996 	 1.935133 
H 	 3.207084 	 7.113640 	 -2.387752 
H 	 2.197787 	 -6.788613 	 -3.058167 
H 	 0.957019 	 -4.329475 	 -4.096768 
H 	 0.135951 	 -5.258094 	 -3.101945 
H 	 3.371049 	 -5.727324 	 6.389754 
H 	 2.012394 	 -5.198729 	 5.792127 
H 	 -5.248356 	 -4.080810 	 -6.310446 
H 	 -5.296708 	 -3.716081 	 -4.778056 
H 	 -4.959270 	 1.487908 	 6.391519 
H 	 -5.353233 	 2.063460 	 -7.215555 
H 	 6.325391 	 -7.182815 	 -3.225418 
H 	 7.118653 	 6.801622 	 -4.132085 
H 	 -5.454747 	 0.873923 	 -1.187160 
H 	 -6.147642 	 2.240468 	 -0.997008 
H 	 -6.791722 	 6.252751 	 -7.007296 
H 	 -7.147098 	 5.291431 	 6.737144 
H 	 -4.638721 	 -1.791631 	 -5.449992 
H 	 -4.104115 	 -1.120592 	 -4.179834 
H 	 -3.443048 	 3.296442 	 2.415831 
H 	 -4.918875 	 3.622751 	 2.558645 
H 	 6.530096 	 3.124760 	 4.243643 
H 	 5.884782 	 4.526571 	 4.211260 
H 	 -2.840747 	 2.669532 	 6.560994 
H 	 -2.556159 	 3.153762 	 4.996015 
H 	 2.532641 	 4.163497 	 7.227935 
H 	 3.821056 	 3.404875 	 7.315024 
H 	 2.710679 	 0.756199 	 -0.904046 
H 	 2.711164 	 0.447956 	 -2.407468 
H 	 7.093961 	 -0.686452 	 -4.168034 
H 	 6.100097 	 -1.942837 	 -4.280202 
H 	 1.733824 	 -3.901618 	 -6.132114 
H 	 2.944824 	 -4.402249 	 -5.303744 
H 	 6.488129 	 1.491342 	 -0.067330 
H 	 7.070982 	 0.111638 	 0.126107 
H 	 -2.316838 	 -3.127098 	 0.346444 
H 	 -2.003371 	 -3.974028 	 1.368026 
H 	 -5.700554 	 -7.311526 	 -4.281273 
H 	 -6.256264 	 -7.081394 	 -5.741150 
H 	 2.597085 	 -1.611419 	 -2.712082 
H 	 1.709827 	 -1.174810 	 -3.936057 
H 	 4.658784 	 5.365278 	 6.177053 
H 	 3.532125 	 6.003901 	 5.180401 
H 	 -3.710496 	 -5.240445 	 -4.861909 
H 	 -2.565653 	 -5.876352 	 -5.554935 
H 	 -1.167021 	 -3.686095 	 -4.113533 
H 	 -2.530262 	 -3.646988 	 -4.714133 
H 	 2.509953 	 2.001677 	 4.995268 
H 	 1.128749 	 1.640776 	 3.480016 
H 	 -2.800545 	 -1.263416 	 4.382075 
H 	 -2.728493 	 0.028289 	 3.564022 
H 	 -0.498593 	 6.632089 	 2.449252 
H 	 -1.974949 	 6.536661 	 2.741314 
H 	 5.242685 	 -4.540931 	 -5.252322 
H 	 4.480912 	 -3.174501 	 -5.652452 
H 	 6.492088 	 0.805265 	 5.550615 
H 	 -7.157824 	 1.256816 	 6.261884 
H 	 5.032158 	 -2.294468 	 4.853970 
H 	 3.791571 	 -3.336285 	 5.000973 
H 	 3.071579 	 2.397715 	 -4.727726 
H 	 3.069943 	 3.814357 	 -5.444140 
H 	 7.284446 	 -5.074411 	 -1.965872 
H 	 6.034742 	 -5.784889 	 -1.450654 
H 	 -4.545414 	 5.414200 	 -7.435193 
H 	 -3.115041 	 4.685296 	 -7.120474 
H 	 5.147861 	 -6.895937 	 7.193045 
H 	 5.597913 	 -5.755511 	 6.258917 
H 	 4.640707 	 5.746008 	 -6.441494 
H 	 5.365633 	 6.702445 	 -5.461997 
H 	 3.918878 	 0.578299 	 -6.034799 
H 	 3.448404 	 -0.007558 	 -4.697411 
H 	 1.195892 	 -3.305221 	 1.670520 
H 	 1.478348 	 -4.657877 	 1.052022 
H 	 4.851086 	 -0.654439 	 0.071761 
H 	 3.911654 	 -1.357146 	 0.982710 
H 	 -6.335834 	 -5.834711 	 7.187377 
H 	 -7.599739 	 -5.564921 	 -6.820271 
H 	 0.215427 	 -2.445433 	 -6.446389 
H 	 0.742456 	 -2.488243 	 7.048212 
H 	 -0.518204 	 -6.526772 	 -7.129309 
H 	 -0.440236 	 7.429239 	 -5.824886 
H 	 0.513154 	 0.234176 	 1.177819 
H 	 2.053087 	 0.190370 	 1.556036 
H 	 2.266386 	 -6.413854 	 2.010047 
H 	 1.676533 	 7.426775 	 1.005430 
H 	 -2.996013 	 0.244174 	 1.267285 
H 	 -4.254573 	 1.281584 	 1.232317 
H 	 -4.191021 	 -5.918166 	 -7.017372 
H 	 -3.283318 	 -7.107705 	 -7.428206 
H 	 0.296128 	 3.679576 	 5.479156 
H 	 0.859066 	 5.090653 	 5.631418 
H 	 -1.222770 	 -5.852153 	 3.407422 
H 	 -0.553064 	 -4.378147 	 3.592416 
H 	 -6.574421 	 -2.970252 	 -3.247962 
H 	 -5.170831 	 -3.242256 	 -2.642225 
H 	 -0.961202 	 2.123119 	 -3.602431 
H 	 -2.301080 	 1.866484 	 -3.002127 
H 	 4.946660 	 5.404426 	 -1.240643 
H 	 4.653272 	 5.982397 	 0.224931 
H 	 -0.454512 	 3.034847 	 0.055441 
H 	 -1.647505 	 3.263107 	 1.045656 
H 	 -0.322399 	 5.534303 	 -0.117054 
H 	 -1.686858 	 5.228520 	 -0.816708 
H 	 6.105143 	 0.791920 	 2.974174 
H 	 5.064487 	 1.832562 	 2.374580 
H 	 6.229181 	 3.063556 	 6.776061 
H 	 6.569620 	 3.789984 	 -6.697674 
H 	 -4.270956 	 -3.574447 	 1.989127 
H 	 -4.685585 	 -4.343343 	 3.102825 
H 	 2.016254 	 5.307407 	 1.822776 
H 	 2.119879 	 4.569392 	 0.424518 
H 	 0.334622 	 -0.565387 	 5.763972 
H 	 1.699248 	 -1.299762 	 5.486802 
H 	 -5.600183 	 0.646217 	 -4.798640 
H 	 -6.518425 	 1.245938 	 -3.731910 
H 	 -1.316252 	 -0.358597 	 -0.009238 
H 	 -1.442851 	 -1.147514 	 1.422054 
H 	 -0.306064 	 7.104334 	 -3.133298 
H 	 -0.038513 	 -7.358974 	 -1.674270 
H 	 -3.904577 	 2.369261 	 -1.985903 
H 	 -2.609269 	 2.803193 	 -1.258705 
H 	 -5.914122 	 0.087125 	 3.027095 
H 	 -6.844221 	 -1.117895 	 2.606332 
H 	 4.257054 	 -5.036414 	 -0.902891 
H 	 4.093943 	 -6.512763 	 -0.897110 
H 	 7.109776 	 -1.225466 	 5.987309 
H 	 7.152358 	 -0.989532 	 4.385367 
H 	 -7.417146 	 -4.325183 	 4.458571 
H 	 -7.198250 	 -5.712162 	 5.070961 
H 	 -6.159764 	 -0.579564 	 -7.408614 
H 	 -7.127299 	 -1.300095 	 -6.422764 
H 	 3.300309 	 4.489094 	 3.951586 
H 	 1.938651 	 3.778381 	 3.976968 
H 	 5.892536 	 -3.318722 	 3.130392 
H 	 7.101779 	 -3.310692 	 2.085761 
H 	 6.373871 	 3.704651 	 -1.367327 
H 	 7.146941 	 4.000211 	 -0.024813 
H 	 -0.309287 	 4.980750 	 -4.244127 
H 	 -1.551028 	 5.813184 	 -4.160588 
H 	 -4.417160 	 -2.620959 	 5.469654 
H 	 -4.848744 	 -2.210367 	 3.970819 
H 	 7.275541 	 4.488107 	 2.353692 
H 	 -7.085936 	 5.680214 	 1.394272 
H 	 4.525715 	 -5.116263 	 1.856347 
H 	 3.693060 	 -4.655851 	 3.056246 
H 	 -7.403227 	 -3.738683 	 -0.118204 
H 	 6.446170 	 -2.977125 	 -0.879535 
H 	 4.116326 	 -0.145909 	 2.830648 
H 	 3.531573 	 -1.558482 	 3.267746 
H 	 -0.928468 	 -1.523303 	 -4.703136 
H 	 -0.129175 	 -0.248359 	 -5.283324 
H 	 0.882492 	 -3.146818 	 -2.105090 
H 	 1.406179 	 -2.834426 	 -0.684311 
H 	 0.394717 	 3.766275 	 -2.009422 
H 	 1.379696 	 3.649269 	 -3.290012 
H 	 -0.130710 	 -6.191770 	 0.947256 
H 	 -0.404461 	 -6.058566 	 -0.542625 
H 	 1.577674 	 2.300203 	 0.360795 
H 	 1.817186 	 2.542207 	 -1.159050 
H 	 -1.120196 	 -2.025348 	 3.138959 
H 	 0.102555 	 -2.091270 	 4.170171 
H 	 4.166907 	 1.978931 	 4.908421 
H 	 0.084017 	 1.386896 	 -7.108579 
H 	 -3.040081 	 -6.204123 	 -0.378410 
H 	 -3.751425 	 7.298756 	 -0.139033 
H 	 -6.999830 	 -5.900335 	 1.452208 
H 	 6.716969 	 -6.114568 	 0.464258 
H 	 6.141376 	 0.701463 	 -2.421077 
H 	 5.356441 	 0.866361 	 -3.859115 
H 	 1.965965 	 7.459082 	 6.269368 
H 	 1.790195 	 -7.326890 	 4.688653 
H 	 1.021664 	 1.926670 	 -5.956823 
O 	 -4.657121 	 7.224947 	 4.804233 
O 	 7.149007 	 3.512617 	 -5.288076 
O 	 -2.951410 	 6.386596 	 -3.284180 
O 	 -6.629400 	 7.288963 	 2.880140 
O 	 -3.712579 	 5.489834 	 -0.259090 
O 	 -5.687888 	 4.859819 	 -2.252658 
O 	 -1.341862 	 3.209601 	 3.217842 
O 	 -3.683924 	 -1.391858 	 -2.314354 
O 	 -1.463600 	 4.553552 	 -6.946377 
O 	 -2.419082 	 -3.850562 	 -1.325870 
O 	 5.812285 	 -6.876462 	 4.219142 
O 	 -1.021365 	 -0.617206 	 -1.626458 
O 	 4.592622 	 -3.403734 	 -1.551734 
O 	 -5.613016 	 -0.910797 	 -0.160646 
O 	 2.349335 	 7.421159 	 -6.494061 
O 	 -5.710135 	 -7.360429 	 -2.095965 
O 	 5.132144 	 4.498016 	 -2.898074 
O 	 -3.159497 	 1.685670 	 -6.155898 
O 	 -0.322021 	 0.821484 	 6.039894 
O 	 2.978473 	 -0.043029 	 7.278237 
O 	 0.196187 	 -5.521557 	 6.410572 
O 	 4.138148 	 -2.742925 	 7.298274 
O 	 -5.349528 	 4.270373 	 4.470124 
O 	 -3.013282 	 -6.478184 	 2.823158 
O 	 4.092166 	 3.087189 	 1.324808 
O 	 3.072423 	 -6.876951 	 -2.676683 
O 	 0.352588 	 -4.318321 	 -3.323920 
O 	 2.963291 	 -5.258972 	 5.632390 
O 	 -4.660984 	 -3.864419 	 -5.577656 
O 	 -5.628178 	 1.344432 	 7.071264 
O 	 6.216940 	 6.864151 	 -3.761811 
O 	 -5.240050 	 1.824612 	 -1.038081 
O 	 -6.575337 	 6.063368 	 6.970358 
O 	 -4.351144 	 -0.943424 	 -5.077192 
O 	 -4.208915 	 3.456162 	 1.869167 
O 	 6.675787 	 4.015400 	 4.041629 
O 	 -3.218115 	 2.784434 	 5.631423 
O 	 3.341774 	 4.104716 	 -7.106165 
O 	 3.093055 	 1.076133 	 -1.711820 
O 	 7.055338 	 -1.673588 	 -4.238388 
O 	 2.034895 	 -4.657198 	 -5.534625 
O 	 6.300874 	 0.532456 	 -0.207630 
O 	 -2.373914 	 -3.088290 	 1.311683 
O 	 -6.139656 	 7.133719 	 -5.039472 
O 	 2.641360 	 -1.137331 	 -3.591722 
O 	 4.381199 	 5.492315 	 5.290121 
O 	 -2.904953 	 -5.755229 	 -4.666553 
O 	 -1.864155 	 -3.025997 	 -4.355348 
O 	 0.983391 	 2.103161 	 4.330462 
O 	 -2.201261 	 -0.524200 	 4.139208 
O 	 -1.200925 	 5.959477 	 2.554940 
O 	 4.832128 	 -3.683281 	 -4.879267 
O 	 6.993334 	 1.600152 	 5.658081 
O 	 4.343159 	 -2.785285 	 4.393796 
O 	 2.886153 	 3.354322 	 -4.540254 
O 	 6.743347 	 -5.838634 	 -2.119959 
O 	 -4.078176 	 4.851212 	 -6.864984 
O 	 5.193278 	 -5.924569 	 7.135231 
O 	 5.088305 	 6.593716 	 -6.386885 
O 	 3.961407 	 0.752818 	 -5.069969 
O 	 1.634803 	 -3.711745 	 0.912681 
O 	 4.169044 	 -1.381373 	 0.038734 
O 	 -6.630970 	 -5.482987 	 -6.851339 
O 	 0.496639 	 -3.080263 	 -7.104992 
O 	 -1.051554 	 -6.943710 	 -6.427861 
O 	 1.310628 	 0.809976 	 1.389764 
O 	 1.436068 	 -6.807512 	 1.667193 
O 	 -3.948355 	 0.365045 	 1.458224 
O 	 -3.877137 	 -6.424903 	 7.084907 
O 	 0.552664 	 4.332533 	 6.170613 
O 	 -0.422137 	 -5.350359 	 3.742438 
O 	 -5.868934 	 -3.692134 	 -3.209584 
O 	 -1.611084 	 1.389588 	 -3.604189 
O 	 4.923745 	 6.207886 	 -0.676021 
O 	 -1.401372 	 3.194223 	 0.080283 
O 	 -0.916200 	 5.850421 	 -0.814849 
O 	 5.208436 	 1.155734 	 3.085666 
O 	 6.292084 	 3.973462 	 7.212379 
O 	 -5.010353 	 -3.526056 	 2.603269 
O 	 2.083356 	 5.491324 	 0.826432 
O 	 0.730396 	 -1.472166 	 5.517926 
O 	 -6.102398 	 1.471158 	 -4.559582 
O 	 -1.219052 	 -0.275558 	 1.005033 
O 	 -0.176155 	 -7.025420 	 -2.567135 
O 	 -3.095711 	 2.923623 	 -2.056414 
O 	 -6.881513 	 -0.153318 	 2.780367 
O 	 4.604989 	 -5.848057 	 -0.441342 
O 	 6.583645 	 -1.160291 	 5.148293 
O 	 -6.847819 	 -4.784670 	 5.130522 
O 	 -6.753114 	 -1.344917 	 -7.304516 
O 	 2.504105 	 4.338819 	 3.418525 
O 	 6.798703 	 -3.035244 	 2.981661 
O 	 7.122131 	 3.412534 	 -0.808344 
O 	 -0.714555 	 5.823394 	 -4.579063 
O 	 -4.420695 	 -1.857515 	 4.838868 
O 	 -7.246733 	 4.745457 	 1.451883 
O 	 4.044187 	 -5.512880 	 2.648437 
O 	 -7.531375 	 -2.871768 	 -0.563119 
O 	 3.438995 	 -0.844912 	 2.605758 
O 	 -0.036962 	 -1.174903 	 -4.960319 
O 	 1.109593 	 -2.373277 	 -1.490432 
O 	 0.403670 	 3.706090 	 -2.975374 
O 	 -0.774900 	 -5.924162 	 0.316354 
O 	 1.457217 	 2.974559 	 -0.362538 
O 	 -0.453254 	 -2.645811 	 3.516702 
O 	 3.409475 	 1.990720 	 5.517530 
O 	 -3.898547 	 -6.617859 	 -0.190360 
O 	 -7.551717 	 -5.478034 	 0.767322 
O 	 6.233456 	 0.838527 	 -3.415194 
O 	 1.933358 	 6.950325 	 5.424213 
O 	 0.678326 	 1.122952 	 -6.334922 
K 	 -4.483054 	 3.872232 	 -4.567670 
