333
conformation = 29
H 	 -4.691703 	 6.233455 	 4.917516 
H 	 -4.754597 	 -7.148641 	 5.629198 
H 	 6.646035 	 3.279073 	 -4.445049 
H 	 -7.114143 	 2.727814 	 -5.222812 
H 	 -2.776755 	 6.274238 	 -2.395051 
H 	 -3.224860 	 7.288637 	 -3.560087 
H 	 -7.326884 	 7.380260 	 3.520070 
H 	 -5.827160 	 7.309596 	 3.340802 
H 	 -3.753712 	 4.927343 	 0.568149 
H 	 -4.325898 	 5.042767 	 -0.897032 
H 	 -6.409504 	 4.350738 	 -1.845046 
H 	 -5.857936 	 5.808173 	 -2.120017 
H 	 -0.659560 	 2.628642 	 3.728147 
H 	 -1.115711 	 4.067821 	 3.217965 
H 	 -4.264168 	 -1.451286 	 -1.503492 
H 	 -2.871720 	 -0.994531 	 -1.994526 
H 	 -0.837529 	 4.648269 	 7.229341 
H 	 -1.320064 	 5.264096 	 -6.376029 
H 	 -2.746654 	 -3.174459 	 -2.007754 
H 	 -1.547788 	 -3.976863 	 -1.702481 
H 	 5.291901 	 7.195822 	 4.632879 
H 	 5.165478 	 -6.386380 	 3.752189 
H 	 -0.195211 	 -1.194852 	 -1.664246 
H 	 -0.968329 	 -0.060372 	 -2.420792 
H 	 4.326260 	 -3.255289 	 -2.453567 
H 	 4.403545 	 -2.669221 	 -0.978447 
H 	 -6.228249 	 -1.587684 	 0.192220 
H 	 -5.054329 	 -0.554630 	 0.549686 
H 	 3.258255 	 7.140474 	 -6.530712 
H 	 2.274414 	 -6.664036 	 -6.035704 
H 	 -6.489470 	 -6.798467 	 -2.101162 
H 	 -5.027037 	 -6.947694 	 -1.551018 
H 	 5.380289 	 5.334177 	 -3.185434 
H 	 4.361043 	 4.005668 	 -3.367081 
H 	 -2.407648 	 1.754797 	 -5.548971 
H 	 -3.389265 	 0.729509 	 -6.066828 
H 	 0.158499 	 1.177524 	 5.270850 
H 	 -1.143410 	 0.403044 	 5.817705 
H 	 2.122670 	 0.145605 	 -7.317689 
H 	 3.212788 	 0.532121 	 6.571910 
H 	 -0.151324 	 -5.556617 	 5.504590 
H 	 0.194822 	 -4.667065 	 6.828815 
H 	 3.504753 	 -2.039264 	 7.290007 
H 	 3.648640 	 -3.556566 	 7.159216 
H 	 -4.989216 	 3.697875 	 5.197047 
H 	 -6.304887 	 4.183441 	 4.507112 
H 	 -3.450751 	 -6.868343 	 2.069951 
H 	 -3.468100 	 -6.933032 	 3.614184 
H 	 3.770672 	 3.074776 	 0.368438 
H 	 3.496053 	 3.402369 	 1.889573 
H 	 3.024365 	 7.020194 	 -2.330527 
H 	 2.182894 	 -6.881817 	 -3.123458 
H 	 0.991913 	 -4.271582 	 -4.115528 
H 	 0.201788 	 -5.328850 	 -3.130908 
H 	 3.362280 	 -5.677333 	 6.475634 
H 	 1.992636 	 -5.176758 	 5.864537 
H 	 -5.385188 	 -4.076634 	 -6.246012 
H 	 -5.207321 	 -3.910921 	 -4.754572 
H 	 -4.859540 	 1.343714 	 6.405005 
H 	 -5.426214 	 2.014134 	 -7.264976 
H 	 6.246267 	 -7.321311 	 -3.172416 
H 	 7.128314 	 6.800685 	 -4.243650 
H 	 -5.466344 	 0.830964 	 -1.029621 
H 	 -6.104456 	 2.286310 	 -0.855350 
H 	 -6.741689 	 6.085812 	 -6.965485 
H 	 -7.193609 	 5.193427 	 6.786291 
H 	 -4.791017 	 -1.804053 	 -5.468941 
H 	 -4.159044 	 -1.328127 	 -4.160205 
H 	 -3.311677 	 3.186217 	 2.279347 
H 	 -4.822771 	 3.579383 	 2.619523 
H 	 6.518081 	 3.067780 	 4.339908 
H 	 5.830413 	 4.483318 	 4.181864 
H 	 -2.708165 	 2.517436 	 6.437341 
H 	 -2.529595 	 3.130025 	 5.019828 
H 	 2.539508 	 4.262041 	 7.308831 
H 	 3.777157 	 3.322588 	 7.315563 
H 	 2.862740 	 0.560470 	 -0.837427 
H 	 2.766199 	 0.471593 	 -2.438251 
H 	 6.999947 	 -0.791984 	 -4.038478 
H 	 6.096798 	 -2.024338 	 -4.331553 
H 	 1.823044 	 -3.949690 	 -6.011277 
H 	 3.050244 	 -4.619152 	 -5.272687 
H 	 6.500544 	 1.371178 	 -0.110360 
H 	 7.131319 	 -0.039306 	 0.135514 
H 	 -2.276310 	 -3.216977 	 0.310487 
H 	 -2.011429 	 -4.057136 	 1.580750 
H 	 -5.668640 	 -7.344681 	 -4.278655 
H 	 -6.237409 	 -7.034860 	 -5.638231 
H 	 2.500397 	 -1.524312 	 -2.690977 
H 	 1.706389 	 -1.154560 	 -3.985211 
H 	 4.562270 	 5.316886 	 6.217634 
H 	 3.561535 	 5.949404 	 5.308247 
H 	 -3.680617 	 -5.215549 	 -4.917758 
H 	 -2.392393 	 -6.019545 	 -5.498495 
H 	 -1.057562 	 -3.693254 	 -4.248538 
H 	 -2.603603 	 -3.536392 	 -4.648194 
H 	 2.601898 	 1.939115 	 4.921893 
H 	 1.059557 	 1.650615 	 3.456262 
H 	 -2.918012 	 -1.298841 	 4.228465 
H 	 -2.550014 	 0.025969 	 3.466365 
H 	 -0.494854 	 6.591409 	 2.434768 
H 	 -2.013959 	 6.536520 	 2.545343 
H 	 5.183122 	 -4.573378 	 -5.219634 
H 	 4.583746 	 -3.413273 	 -5.803820 
H 	 6.412505 	 0.758944 	 5.449576 
H 	 -7.238325 	 1.257430 	 6.309340 
H 	 5.068719 	 -2.360785 	 4.991250 
H 	 3.871806 	 -3.391712 	 5.039303 
H 	 3.154987 	 2.357534 	 -4.812641 
H 	 3.176389 	 3.806053 	 -5.360467 
H 	 7.246373 	 -5.074674 	 -2.069057 
H 	 5.946040 	 -5.827500 	 -1.515093 
H 	 -4.512641 	 5.449173 	 -7.470034 
H 	 -3.210827 	 4.638466 	 -7.207506 
H 	 5.124391 	 -6.963990 	 7.259464 
H 	 5.654395 	 -5.790675 	 6.299332 
H 	 4.610231 	 5.712303 	 -6.510230 
H 	 5.371188 	 6.593748 	 -5.421321 
H 	 3.850499 	 0.519905 	 -6.008295 
H 	 3.489382 	 0.006794 	 -4.549081 
H 	 1.315395 	 -3.364642 	 1.802631 
H 	 1.348302 	 -4.654261 	 1.062927 
H 	 4.842580 	 -0.753014 	 -0.020371 
H 	 3.783323 	 -1.440214 	 0.978763 
H 	 -6.554774 	 -5.801775 	 7.156956 
H 	 -7.616709 	 -5.706012 	 -6.784295 
H 	 0.047767 	 -2.475177 	 -6.429698 
H 	 0.620970 	 -2.539500 	 7.002109 
H 	 -0.493577 	 -6.874975 	 -7.179490 
H 	 -0.497654 	 7.407068 	 -5.715605 
H 	 0.459995 	 0.267311 	 1.299731 
H 	 2.078022 	 0.080807 	 1.437473 
H 	 2.252136 	 -6.536944 	 2.076007 
H 	 1.767939 	 7.219681 	 1.226541 
H 	 -2.986966 	 0.323154 	 1.388529 
H 	 -4.090138 	 1.335850 	 1.293959 
H 	 -4.172862 	 -5.938186 	 -7.022623 
H 	 -3.220326 	 -7.096497 	 -7.392610 
H 	 0.403848 	 3.550672 	 5.493193 
H 	 0.815309 	 5.084544 	 5.598601 
H 	 -1.200577 	 -5.834465 	 3.418704 
H 	 -0.564800 	 -4.481305 	 3.435163 
H 	 -6.581096 	 -3.056938 	 -3.293537 
H 	 -5.077239 	 -3.400297 	 -2.733909 
H 	 -0.799203 	 1.962260 	 -3.569414 
H 	 -2.253239 	 1.859432 	 -3.099063 
H 	 4.926332 	 5.313788 	 -1.160278 
H 	 4.574570 	 5.924454 	 0.241587 
H 	 -0.406041 	 3.079026 	 0.093880 
H 	 -1.658736 	 3.285503 	 1.014590 
H 	 -0.343721 	 5.524191 	 -0.076514 
H 	 -1.749854 	 5.290630 	 -0.742473 
H 	 6.112917 	 0.821407 	 2.918946 
H 	 4.995465 	 1.689217 	 2.283936 
H 	 6.020386 	 3.138907 	 6.810037 
H 	 6.633818 	 3.621038 	 -6.798486 
H 	 -4.336536 	 -3.614609 	 1.907654 
H 	 -4.864282 	 -4.315507 	 3.280771 
H 	 1.980366 	 5.231349 	 1.766429 
H 	 2.066001 	 4.627766 	 0.315308 
H 	 0.289512 	 -0.606257 	 5.697345 
H 	 1.700310 	 -1.306934 	 5.674764 
H 	 -5.594990 	 0.555583 	 -4.840745 
H 	 -6.538755 	 1.126629 	 -3.775954 
H 	 -1.264912 	 -0.404127 	 0.009698 
H 	 -1.560628 	 -1.167880 	 1.324081 
H 	 -0.206352 	 6.993897 	 -3.172964 
H 	 -0.229257 	 7.382381 	 -1.668363 
H 	 -3.957524 	 2.492609 	 -1.808055 
H 	 -2.574787 	 2.885971 	 -1.184803 
H 	 -5.914519 	 0.120442 	 2.832757 
H 	 -6.867056 	 -1.143945 	 2.610581 
H 	 4.345483 	 -5.034632 	 -0.831437 
H 	 4.092526 	 -6.538349 	 -0.887553 
H 	 7.003753 	 -1.370744 	 6.064217 
H 	 7.270594 	 -0.988009 	 4.463442 
H 	 -7.444247 	 -4.313668 	 4.440234 
H 	 -7.157402 	 -5.702822 	 4.960945 
H 	 -6.267685 	 -0.569897 	 -7.429105 
H 	 -7.313816 	 -1.351391 	 -6.516569 
H 	 3.368512 	 4.559864 	 3.854955 
H 	 2.054244 	 3.631683 	 4.036291 
H 	 5.810038 	 -3.283974 	 3.107260 
H 	 7.011921 	 -3.403863 	 2.170413 
H 	 6.448912 	 3.707657 	 -1.378522 
H 	 7.199995 	 3.992263 	 0.073433 
H 	 -0.291986 	 4.968391 	 -4.093183 
H 	 -1.551925 	 5.954583 	 -4.101234 
H 	 -4.552515 	 -2.675924 	 5.413790 
H 	 -4.806171 	 -2.209825 	 4.024079 
H 	 7.231792 	 4.379229 	 2.279892 
H 	 -7.201846 	 5.695106 	 1.503645 
H 	 4.484382 	 -5.330191 	 1.797974 
H 	 3.682309 	 -4.713428 	 3.036379 
H 	 -7.411263 	 -3.696768 	 -0.019708 
H 	 6.456301 	 -2.955751 	 -0.897690 
H 	 4.116934 	 -0.204546 	 2.817601 
H 	 3.668228 	 -1.568446 	 3.311917 
H 	 -0.993770 	 -1.611858 	 -4.871469 
H 	 -0.177111 	 -0.360455 	 -5.288860 
H 	 0.911329 	 -3.135789 	 -2.102897 
H 	 1.394054 	 -2.908391 	 -0.656309 
H 	 0.388068 	 3.762930 	 -1.972130 
H 	 1.270064 	 3.624217 	 -3.345772 
H 	 -0.042076 	 -6.285542 	 0.979532 
H 	 -0.404859 	 -6.076913 	 -0.505495 
H 	 1.565364 	 2.173295 	 0.353794 
H 	 1.741098 	 2.392378 	 -1.141361 
H 	 -1.120200 	 -2.125300 	 3.277359 
H 	 0.057738 	 -2.211321 	 4.209985 
H 	 4.133755 	 2.178574 	 4.814053 
H 	 0.088079 	 1.344978 	 -7.052564 
H 	 -3.035859 	 -6.195279 	 -0.343734 
H 	 -3.618292 	 7.279988 	 -0.145984 
H 	 -7.135350 	 -6.184417 	 1.428018 
H 	 6.606534 	 -6.103464 	 0.469690 
H 	 5.930270 	 0.730057 	 -2.519975 
H 	 5.415158 	 0.768672 	 -3.918656 
H 	 1.936167 	 7.378835 	 6.241592 
H 	 1.799894 	 -7.354326 	 4.651315 
H 	 0.925648 	 1.950100 	 -5.924292 
O 	 -4.658021 	 7.196186 	 4.818568 
O 	 7.157300 	 3.500367 	 -5.274307 
O 	 -2.914742 	 6.359614 	 -3.351692 
O 	 -6.656770 	 7.224731 	 2.844849 
O 	 -3.744789 	 5.475637 	 -0.244989 
O 	 -5.687939 	 4.822550 	 -2.253877 
O 	 -1.353214 	 3.116920 	 3.229874 
O 	 -3.673658 	 -1.451794 	 -2.306082 
O 	 -1.476951 	 4.502564 	 -6.938833 
O 	 -2.438593 	 -3.861912 	 -1.352918 
O 	 5.793152 	 -6.972681 	 4.222935 
O 	 -1.019654 	 -0.672892 	 -1.638074 
O 	 4.615613 	 -3.446883 	 -1.565827 
O 	 -5.612349 	 -0.903112 	 -0.192873 
O 	 2.323429 	 7.414762 	 -6.537054 
O 	 -5.730285 	 -7.378592 	 -2.078758 
O 	 5.132005 	 4.446781 	 -2.891587 
O 	 -3.144596 	 1.659209 	 -6.166057 
O 	 -0.314037 	 0.764005 	 6.080753 
O 	 3.039950 	 -0.081011 	 7.296186 
O 	 0.158048 	 -5.590083 	 6.463622 
O 	 4.135366 	 -2.783587 	 7.344884 
O 	 -5.334630 	 4.221437 	 4.496880 
O 	 -2.997167 	 -6.536725 	 2.854579 
O 	 4.117729 	 3.039896 	 1.278821 
O 	 3.052946 	 -6.927366 	 -2.676758 
O 	 0.353217 	 -4.343325 	 -3.329839 
O 	 2.945643 	 -5.346643 	 5.628103 
O 	 -4.669178 	 -3.949378 	 -5.578494 
O 	 -5.648090 	 1.320762 	 7.006761 
O 	 6.260313 	 6.837317 	 -3.750717 
O 	 -5.236031 	 1.774611 	 -1.031851 
O 	 -6.636565 	 5.987317 	 6.963157 
O 	 -4.366486 	 -1.001803 	 -5.101735 
O 	 -4.173556 	 3.440371 	 1.851717 
O 	 6.685151 	 3.989621 	 4.048671 
O 	 -3.221638 	 2.755862 	 5.624506 
O 	 3.387302 	 4.089371 	 -7.155015 
O 	 3.069460 	 1.051864 	 -1.710439 
O 	 7.030543 	 -1.771659 	 -4.241869 
O 	 2.084229 	 -4.724391 	 -5.513656 
O 	 6.320945 	 0.444675 	 -0.199290 
O 	 -2.368812 	 -3.190295 	 1.314909 
O 	 -6.122867 	 7.120530 	 -5.012514 
O 	 2.601743 	 -1.166264 	 -3.626634 
O 	 4.397808 	 5.429097 	 5.251085 
O 	 -2.912818 	 -5.779960 	 -4.631949 
O 	 -1.837653 	 -3.068770 	 -4.342084 
O 	 0.970255 	 2.058298 	 4.334008 
O 	 -2.185710 	 -0.562850 	 4.157892 
O 	 -1.216567 	 5.943556 	 2.538841 
O 	 4.851036 	 -3.715898 	 -4.886705 
O 	 6.984365 	 1.520000 	 5.660220 
O 	 4.370274 	 -2.826661 	 4.381428 
O 	 2.909935 	 3.285737 	 -4.516974 
O 	 6.779867 	 -5.919561 	 -2.130689 
O 	 -4.094839 	 4.836023 	 -6.829098 
O 	 5.147449 	 -5.974058 	 7.132717 
O 	 5.094781 	 6.566545 	 -6.401403 
O 	 3.996048 	 0.727093 	 -5.067303 
O 	 1.652943 	 -3.726212 	 0.928131 
O 	 4.171080 	 -1.417472 	 0.043137 
O 	 -6.625887 	 -5.544371 	 -6.814227 
O 	 0.500953 	 -3.089342 	 -7.088492 
O 	 -1.035676 	 -7.015428 	 -6.372543 
O 	 1.335064 	 0.744776 	 1.395889 
O 	 1.428596 	 -6.859138 	 1.649068 
O 	 -3.975587 	 0.368048 	 1.474265 
O 	 -3.860946 	 -6.481695 	 7.104728 
O 	 0.591990 	 4.278411 	 6.159307 
O 	 -0.399107 	 -5.397051 	 3.730010 
O 	 -5.894009 	 -3.725069 	 -3.218288 
O 	 -1.582206 	 1.336390 	 -3.583113 
O 	 4.896801 	 6.189581 	 -0.677997 
O 	 -1.404148 	 3.164720 	 0.081540 
O 	 -0.920055 	 5.789432 	 -0.812289 
O 	 5.214650 	 1.084681 	 3.059169 
O 	 6.302366 	 3.951245 	 7.237554 
O 	 -5.036345 	 -3.578835 	 2.619522 
O 	 2.066498 	 5.464491 	 0.817896 
O 	 0.755665 	 -1.498576 	 5.504009 
O 	 -6.091080 	 1.389560 	 -4.616429 
O 	 -1.243097 	 -0.329969 	 0.966588 
O 	 -0.178029 	 -7.083478 	 -2.562932 
O 	 -3.067210 	 2.877586 	 -2.067579 
O 	 -6.850358 	 -0.179850 	 2.799533 
O 	 4.629205 	 -5.860298 	 -0.408360 
O 	 6.627569 	 -1.197129 	 5.180016 
O 	 -6.878779 	 -4.776511 	 5.124741 
O 	 -6.773395 	 -1.403280 	 -7.311200 
O 	 2.510485 	 4.272319 	 3.419725 
O 	 6.768732 	 -3.004248 	 3.016476 
O 	 7.153697 	 3.379553 	 -0.785223 
O 	 -0.653687 	 5.742840 	 -4.635386 
O 	 -4.403243 	 -1.907381 	 4.860035 
O 	 -7.262112 	 4.717548 	 1.442795 
O 	 4.008890 	 -5.537690 	 2.616059 
O 	 -7.516742 	 -2.901292 	 -0.552066 
O 	 3.450100 	 -0.924198 	 2.604626 
O 	 -0.052602 	 -1.231064 	 -4.959879 
O 	 1.144172 	 -2.429057 	 -1.476452 
O 	 0.398918 	 3.667342 	 -2.935992 
O 	 -0.767788 	 -5.989061 	 0.372539 
O 	 1.445915 	 2.909337 	 -0.348592 
O 	 -0.421980 	 -2.711174 	 3.504626 
O 	 3.434136 	 1.956874 	 5.457560 
O 	 -3.889602 	 -6.679216 	 -0.197104 
O 	 -7.537210 	 -5.548629 	 0.793333 
O 	 6.228269 	 0.795710 	 -3.422718 
O 	 1.963164 	 6.937260 	 5.411057 
O 	 0.639618 	 1.084967 	 -6.297097 
K 	 -4.491338 	 3.816198 	 -4.571728 
