333
conformation = 66
H 	 -4.557531 	 6.287944 	 4.852252 
H 	 -4.253737 	 -7.273418 	 5.797441 
H 	 6.856949 	 3.422500 	 -4.266230 
H 	 -7.021928 	 2.718190 	 -5.067823 
H 	 -2.929873 	 6.257727 	 -2.539597 
H 	 -2.806244 	 7.401162 	 -3.635259 
H 	 7.425481 	 7.298702 	 3.273854 
H 	 -5.988098 	 7.110985 	 3.612270 
H 	 -3.716023 	 4.973813 	 0.698131 
H 	 -4.269690 	 5.336423 	 -0.738943 
H 	 -6.244683 	 4.479735 	 -1.585299 
H 	 -5.691352 	 5.857467 	 -2.025042 
H 	 -0.294489 	 2.799246 	 3.677674 
H 	 -1.250269 	 4.027034 	 3.318803 
H 	 -4.016509 	 -0.974876 	 -1.526324 
H 	 -2.559194 	 -1.171696 	 -1.975262 
H 	 -0.542608 	 4.346018 	 7.457582 
H 	 -0.774211 	 4.670393 	 -6.017447 
H 	 -2.735565 	 -2.986384 	 -1.741960 
H 	 -1.439476 	 -3.815022 	 -1.836684 
H 	 5.570387 	 6.949700 	 4.587671 
H 	 5.350414 	 -6.676470 	 3.731475 
H 	 -0.018201 	 -1.183419 	 -1.787242 
H 	 -0.827006 	 0.037710 	 -2.280814 
H 	 4.568834 	 -3.338135 	 -2.420140 
H 	 4.435524 	 -2.683596 	 -0.932420 
H 	 -5.794390 	 -1.557594 	 -0.153998 
H 	 -4.902166 	 -0.511304 	 0.665574 
H 	 3.317823 	 7.285806 	 -6.350438 
H 	 2.353518 	 -6.366391 	 -6.440662 
H 	 -6.404408 	 -6.888483 	 -1.566823 
H 	 -4.852911 	 -6.989462 	 -1.310730 
H 	 5.921353 	 5.131354 	 -3.088292 
H 	 4.566054 	 4.236423 	 -3.161577 
H 	 -2.031354 	 2.090076 	 -5.661220 
H 	 -3.023465 	 0.819815 	 -5.816471 
H 	 0.435604 	 1.337084 	 5.640060 
H 	 -1.053587 	 0.767246 	 5.887429 
H 	 2.603052 	 0.405092 	 -7.101772 
H 	 3.793300 	 0.645355 	 6.802038 
H 	 -0.017551 	 -5.593768 	 5.778218 
H 	 -0.133587 	 -4.956433 	 7.248155 
H 	 4.037381 	 -1.790904 	 -7.272212 
H 	 3.592336 	 -3.258981 	 7.187518 
H 	 -4.587388 	 3.557896 	 5.207658 
H 	 -6.019223 	 4.303844 	 4.709082 
H 	 -3.279855 	 -6.108862 	 2.396554 
H 	 -3.418681 	 -6.901517 	 3.734226 
H 	 3.746139 	 2.570875 	 0.733964 
H 	 3.978419 	 3.443559 	 2.038619 
H 	 3.171936 	 7.187769 	 -2.009473 
H 	 2.209212 	 -6.791453 	 -2.601397 
H 	 1.296953 	 -4.529907 	 -3.917092 
H 	 0.356027 	 -5.150665 	 -2.834693 
H 	 3.743728 	 -5.784683 	 6.255811 
H 	 2.297622 	 -5.436335 	 6.337113 
H 	 -5.307118 	 -4.362423 	 -5.963873 
H 	 -4.873959 	 -3.951502 	 -4.525573 
H 	 -4.630236 	 1.283175 	 6.400262 
H 	 -5.125141 	 1.909674 	 -7.152296 
H 	 6.482563 	 -7.230837 	 -3.071635 
H 	 -7.449388 	 6.865475 	 -4.079452 
H 	 -5.406852 	 0.968102 	 -0.544249 
H 	 -5.762684 	 2.486842 	 -0.713913 
H 	 -6.474298 	 6.048435 	 -6.849739 
H 	 -7.306961 	 5.247502 	 7.113221 
H 	 -4.602834 	 -1.788925 	 -5.430387 
H 	 -3.962259 	 -1.240450 	 -4.187984 
H 	 -2.952237 	 3.319142 	 2.374241 
H 	 -4.304561 	 3.988500 	 2.683986 
H 	 6.916158 	 3.232858 	 4.693664 
H 	 6.286053 	 4.604209 	 4.648921 
H 	 -2.407390 	 2.707995 	 6.504395 
H 	 -2.389081 	 2.681298 	 4.974679 
H 	 2.771439 	 4.632513 	 -7.314805 
H 	 3.741722 	 3.456939 	 7.121838 
H 	 3.743253 	 0.439535 	 -1.176015 
H 	 2.962295 	 0.836681 	 -2.456862 
H 	 6.699607 	 -1.335780 	 -3.477338 
H 	 6.550620 	 -2.657258 	 -4.190122 
H 	 2.016333 	 -4.237759 	 -5.992706 
H 	 3.272654 	 -4.291990 	 -5.001708 
H 	 6.709246 	 1.324265 	 -0.258530 
H 	 -7.405256 	 -0.020786 	 -0.042699 
H 	 -2.321130 	 -3.779810 	 0.620930 
H 	 -1.486964 	 -3.774383 	 1.990984 
H 	 -5.483389 	 7.419923 	 -3.870598 
H 	 -5.609486 	 -6.780977 	 -5.205306 
H 	 2.310494 	 -1.542602 	 -2.773226 
H 	 1.828848 	 -1.150732 	 -4.213624 
H 	 4.749553 	 4.916411 	 6.045353 
H 	 3.871511 	 6.011123 	 5.666931 
H 	 -3.176262 	 -5.452873 	 -5.150857 
H 	 -1.852753 	 -6.059587 	 -4.648665 
H 	 -1.062306 	 -3.706142 	 -3.874689 
H 	 -2.389983 	 -3.195590 	 -4.711378 
H 	 2.818348 	 1.987184 	 5.066542 
H 	 1.285851 	 1.471986 	 3.743263 
H 	 -2.774719 	 -0.444378 	 4.711507 
H 	 -1.965077 	 0.164461 	 3.598290 
H 	 -0.165615 	 6.505100 	 2.711395 
H 	 -1.671032 	 6.828455 	 2.640163 
H 	 5.776838 	 -4.368064 	 -4.687134 
H 	 5.113330 	 -3.577862 	 -5.821300 
H 	 6.884433 	 0.603533 	 5.631583 
H 	 -6.935184 	 1.725464 	 5.957191 
H 	 5.295848 	 -2.397052 	 5.134518 
H 	 4.397463 	 -3.598204 	 5.008572 
H 	 3.751828 	 2.443115 	 -4.421861 
H 	 3.170849 	 3.591098 	 -5.231241 
H 	 7.219021 	 -5.007412 	 -2.429487 
H 	 6.440594 	 -5.835102 	 -1.357417 
H 	 -4.550054 	 5.321115 	 7.472554 
H 	 -3.084427 	 5.088798 	 -7.039630 
H 	 5.381533 	 -6.732650 	 -7.066083 
H 	 5.724284 	 -6.180672 	 6.464907 
H 	 5.679471 	 5.813996 	 -6.622970 
H 	 5.663178 	 6.722199 	 -5.392203 
H 	 4.190616 	 0.487763 	 -5.814969 
H 	 3.820550 	 0.152319 	 -4.351766 
H 	 1.465797 	 -3.056649 	 1.847905 
H 	 1.259876 	 -4.298318 	 1.023529 
H 	 5.269909 	 -0.888929 	 0.107716 
H 	 4.064530 	 -1.440487 	 1.067648 
H 	 -6.502838 	 -5.167593 	 7.371307 
H 	 -7.446217 	 -5.469589 	 -6.425335 
H 	 0.502075 	 -2.332387 	 -6.207282 
H 	 0.716961 	 -2.360288 	 7.179779 
H 	 -0.333113 	 -6.625546 	 -6.795758 
H 	 -0.287811 	 7.015540 	 -5.781818 
H 	 0.651415 	 0.411140 	 1.537285 
H 	 2.144316 	 0.084903 	 2.042223 
H 	 2.291923 	 -6.429259 	 2.345609 
H 	 2.149404 	 7.184994 	 1.511131 
H 	 -2.966655 	 0.440814 	 1.270856 
H 	 -3.911296 	 1.565179 	 1.432042 
H 	 -4.054354 	 -5.963817 	 -6.917310 
H 	 -2.708140 	 -6.717300 	 -7.195636 
H 	 1.260628 	 3.604467 	 5.623113 
H 	 1.133942 	 5.157314 	 5.780585 
H 	 -1.053954 	 -5.653851 	 3.530001 
H 	 -0.231893 	 -4.448102 	 3.904208 
H 	 -6.319162 	 -2.892144 	 -3.425946 
H 	 -5.236258 	 -3.459076 	 -2.364951 
H 	 -0.396845 	 1.867421 	 -3.349287 
H 	 -1.828377 	 1.816005 	 -2.829029 
H 	 4.942081 	 5.589924 	 -1.171591 
H 	 4.403608 	 5.932293 	 0.149812 
H 	 -0.310995 	 3.124236 	 -0.070470 
H 	 -1.018694 	 3.205272 	 1.228439 
H 	 -0.277100 	 6.112683 	 0.150502 
H 	 -1.655831 	 5.801994 	 -0.367888 
H 	 6.423762 	 0.849390 	 2.931117 
H 	 5.252141 	 1.757810 	 2.365875 
H 	 6.757273 	 3.169811 	 6.940702 
H 	 6.567684 	 3.823908 	 -6.538409 
H 	 -4.021402 	 -3.519459 	 2.497507 
H 	 -5.223549 	 -4.286200 	 3.261109 
H 	 2.390347 	 4.886527 	 1.670704 
H 	 1.887912 	 5.048403 	 0.157982 
H 	 0.605485 	 -0.592095 	 5.881376 
H 	 2.062772 	 -1.201484 	 5.845346 
H 	 -5.208632 	 0.485754 	 -4.725583 
H 	 -6.580703 	 0.958012 	 -4.189558 
H 	 -0.972111 	 -0.179644 	 0.087630 
H 	 -1.074566 	 -1.313047 	 1.073706 
H 	 0.165392 	 -7.340103 	 -3.325066 
H 	 -0.504373 	 7.076253 	 -2.089238 
H 	 -3.360687 	 2.446386 	 -1.328488 
H 	 -2.250720 	 3.393097 	 -1.325356 
H 	 -5.749979 	 0.105694 	 2.443476 
H 	 -6.864345 	 -0.968933 	 2.709320 
H 	 4.719323 	 -4.850195 	 -0.625892 
H 	 4.410851 	 -6.408645 	 -0.523157 
H 	 7.353047 	 -1.423686 	 6.328815 
H 	 -7.281792 	 -1.191001 	 4.797994 
H 	 -7.050107 	 -3.726767 	 4.799801 
H 	 -6.899233 	 -5.248186 	 4.505314 
H 	 -6.351496 	 -0.479796 	 -7.165943 
H 	 -7.145801 	 -1.515407 	 -6.316270 
H 	 3.275721 	 4.488978 	 4.229992 
H 	 2.233935 	 3.449613 	 3.712720 
H 	 6.009753 	 -2.745872 	 3.423993 
H 	 6.938065 	 -3.655231 	 2.719968 
H 	 6.650172 	 3.611469 	 -1.112244 
H 	 -7.380438 	 4.122990 	 0.186525 
H 	 0.106618 	 5.015594 	 -3.924867 
H 	 -1.174245 	 5.820108 	 -4.285361 
H 	 -4.512638 	 -2.475904 	 5.796159 
H 	 -4.383851 	 -2.532134 	 4.238619 
H 	 -7.461472 	 4.247851 	 2.294356 
H 	 -6.793416 	 5.593725 	 2.086495 
H 	 4.030434 	 -5.660305 	 1.643394 
H 	 4.148178 	 -4.535086 	 2.754040 
H 	 -7.142335 	 -3.732527 	 0.052763 
H 	 6.803972 	 -2.811757 	 -0.806834 
H 	 4.373597 	 -0.307695 	 2.984451 
H 	 3.787748 	 -1.702048 	 3.411487 
H 	 -0.657912 	 -1.597176 	 -4.366154 
H 	 -0.161176 	 -0.305146 	 -5.159636 
H 	 1.171742 	 -3.230887 	 -1.819069 
H 	 1.644648 	 -2.614838 	 -0.407417 
H 	 0.578676 	 4.279542 	 -1.932057 
H 	 1.517679 	 3.552088 	 -3.108531 
H 	 0.200832 	 -6.357901 	 1.073972 
H 	 -0.295452 	 -5.915450 	 -0.268317 
H 	 1.567154 	 2.144531 	 0.599893 
H 	 2.131262 	 2.294662 	 -0.779974 
H 	 -0.896230 	 -2.175312 	 3.751464 
H 	 0.553063 	 -2.437202 	 4.258939 
H 	 4.259569 	 1.752919 	 4.647848 
H 	 0.341715 	 1.139753 	 -6.960441 
H 	 -2.753474 	 -6.199399 	 -0.098176 
H 	 -3.372725 	 7.299683 	 0.030625 
H 	 -7.034067 	 -6.472911 	 1.386440 
H 	 6.679233 	 -5.799685 	 0.782586 
H 	 5.710255 	 1.058593 	 -2.622691 
H 	 5.866773 	 0.930272 	 -4.089328 
H 	 2.249947 	 7.203065 	 6.472510 
H 	 2.367231 	 -7.084936 	 5.044745 
H 	 0.629278 	 2.148339 	 -5.852097 
O 	 -4.442744 	 7.261083 	 4.911176 
O 	 -7.439331 	 3.587867 	 -5.000978 
O 	 -2.642404 	 6.462832 	 -3.463431 
O 	 -6.573090 	 7.239920 	 2.815852 
O 	 -3.581425 	 5.571003 	 -0.067121 
O 	 -5.481364 	 4.900416 	 -2.131413 
O 	 -1.246485 	 3.050843 	 3.424840 
O 	 -3.476838 	 -1.492575 	 -2.149202 
O 	 -1.313913 	 4.520009 	 -6.834250 
O 	 -2.259993 	 -3.733191 	 -1.311849 
O 	 5.967687 	 -7.076699 	 4.394425 
O 	 -0.810097 	 -0.633897 	 -1.581560 
O 	 4.933633 	 -3.364637 	 -1.490566 
O 	 -5.368479 	 -0.690728 	 -0.169621 
O 	 2.417391 	 -7.335029 	 -6.609140 
O 	 -5.557715 	 -7.226834 	 -1.968320 
O 	 5.376036 	 4.414081 	 -2.701930 
O 	 -2.854855 	 1.754139 	 -6.099335 
O 	 -0.138809 	 0.787114 	 6.340228 
O 	 3.413097 	 -0.039045 	 7.481062 
O 	 0.278938 	 -5.627865 	 6.702184 
O 	 4.345472 	 -2.743998 	 -7.236865 
O 	 -5.046100 	 4.292117 	 4.650510 
O 	 -2.751122 	 -6.580941 	 3.082794 
O 	 4.448575 	 3.043904 	 1.229334 
O 	 3.177594 	 -6.950637 	 -2.573563 
O 	 0.603258 	 -4.290239 	 -3.235051 
O 	 3.061483 	 -5.270836 	 5.759665 
O 	 -4.535884 	 -4.001039 	 -5.486098 
O 	 -5.425010 	 1.409111 	 6.954997 
O 	 6.572734 	 6.857939 	 -3.686631 
O 	 -5.085824 	 1.844422 	 -0.874771 
O 	 -6.603846 	 5.945956 	 7.090772 
O 	 -4.249712 	 -0.957482 	 -5.045985 
O 	 -3.796716 	 3.555753 	 1.967420 
O 	 6.914259 	 4.055531 	 4.190657 
O 	 -2.998672 	 2.806494 	 5.745461 
O 	 3.677988 	 4.253042 	 -7.189898 
O 	 3.198802 	 1.108762 	 -1.546860 
O 	 7.166519 	 -1.879084 	 -4.139275 
O 	 2.481582 	 -4.768001 	 -5.266824 
O 	 6.604246 	 0.348568 	 -0.061880 
O 	 -2.181280 	 -3.338528 	 1.447498 
O 	 -5.862747 	 7.272398 	 -4.781791 
O 	 2.611600 	 -1.049543 	 -3.583986 
O 	 4.617357 	 5.498730 	 5.274683 
O 	 -2.699495 	 -5.740259 	 -4.371374 
O 	 -1.589292 	 -2.958187 	 -4.182649 
O 	 1.134763 	 2.116405 	 4.475965 
O 	 -1.907998 	 -0.504723 	 4.321327 
O 	 -1.041250 	 6.085107 	 2.582164 
O 	 5.091256 	 -3.682638 	 -4.830039 
O 	 6.998569 	 1.552303 	 5.752810 
O 	 4.646199 	 -2.785645 	 4.536684 
O 	 3.197403 	 3.272399 	 -4.288096 
O 	 7.078715 	 -5.922911 	 -2.059985 
O 	 -3.987182 	 5.011234 	 -6.670863 
O 	 5.278998 	 -5.913314 	 7.283879 
O 	 5.258738 	 6.614092 	 -6.267202 
O 	 4.298251 	 0.816598 	 -4.905667 
O 	 1.916284 	 -3.596590 	 1.188133 
O 	 4.353904 	 -1.295848 	 0.146419 
O 	 -6.514571 	 -5.592544 	 -6.621313 
O 	 0.713440 	 -2.933611 	 -6.925920 
O 	 -0.806877 	 -7.078839 	 -6.060538 
O 	 1.598499 	 0.725753 	 1.564546 
O 	 1.673829 	 -6.897718 	 1.756858 
O 	 -3.798276 	 0.631855 	 1.725865 
O 	 -3.585761 	 -6.462006 	 7.333342 
O 	 0.974512 	 4.321933 	 6.225334 
O 	 -0.127181 	 -5.415643 	 3.822949 
O 	 -5.770771 	 -3.684148 	 -3.104012 
O 	 -1.197376 	 1.350990 	 -3.418255 
O 	 4.971278 	 6.308573 	 -0.519040 
O 	 -1.204748 	 3.239110 	 0.274963 
O 	 -0.703025 	 5.784616 	 -0.677661 
O 	 5.435952 	 1.084334 	 3.061405 
O 	 6.464919 	 4.046809 	 7.351725 
O 	 -4.944107 	 -3.525541 	 2.788153 
O 	 2.199665 	 5.552300 	 0.943996 
O 	 1.137918 	 -1.437689 	 5.667192 
O 	 -5.809918 	 1.276374 	 -4.685351 
O 	 -1.169362 	 -0.320701 	 1.035669 
O 	 0.081526 	 -7.104909 	 -2.411992 
O 	 -2.803257 	 2.964092 	 -1.964132 
O 	 -6.544108 	 -0.080819 	 2.975415 
O 	 4.917673 	 -5.677094 	 -0.128776 
O 	 6.921062 	 -1.151092 	 5.471252 
O 	 -6.787437 	 -4.588793 	 5.206758 
O 	 -6.655320 	 -1.403602 	 -7.184446 
O 	 2.764641 	 4.237904 	 3.473106 
O 	 6.943396 	 -2.772788 	 3.167652 
O 	 -7.446541 	 3.425658 	 -0.581909 
O 	 -0.255962 	 5.700864 	 -4.557352 
O 	 -4.221675 	 -1.896771 	 5.046818 
O 	 -7.133363 	 4.825461 	 1.562648 
O 	 4.090389 	 -5.482653 	 2.628516 
O 	 -7.252752 	 -2.829044 	 -0.339201 
O 	 3.684261 	 -0.998315 	 2.721015 
O 	 0.132784 	 -1.232749 	 -4.851131 
O 	 1.477971 	 -2.394115 	 -1.339239 
O 	 0.576986 	 3.729676 	 -2.751508 
O 	 -0.562643 	 -5.959949 	 0.688132 
O 	 1.627139 	 2.834269 	 -0.135125 
O 	 -0.084283 	 -2.759375 	 3.527936 
O 	 3.727528 	 2.054694 	 5.421780 
O 	 -3.606965 	 -6.641408 	 -0.062283 
O 	 -7.320524 	 -5.597048 	 1.063385 
O 	 6.431603 	 0.846779 	 -3.278932 
O 	 2.232576 	 6.964122 	 5.485229 
O 	 0.742326 	 1.194030 	 -6.037778 
K 	 -4.309255 	 3.831883 	 -4.412793 
