333
conformation = 78
H 	 -4.490533 	 6.228208 	 4.990492 
H 	 -4.135822 	 7.463582 	 5.756633 
H 	 6.848096 	 3.580326 	 -4.221500 
H 	 -7.070754 	 2.665234 	 -5.097043 
H 	 -3.011414 	 6.316647 	 -2.700369 
H 	 -2.882206 	 7.392095 	 -3.765979 
H 	 7.350481 	 7.181624 	 3.081863 
H 	 -6.067617 	 7.232313 	 3.519088 
H 	 -3.685951 	 4.830249 	 0.589159 
H 	 -4.325886 	 5.371228 	 -0.707467 
H 	 -6.148840 	 4.435091 	 -1.588355 
H 	 -5.747105 	 5.842029 	 -2.111832 
H 	 -0.363665 	 2.759621 	 3.633887 
H 	 -1.234965 	 3.972915 	 3.367348 
H 	 -4.111514 	 -0.988429 	 -1.672842 
H 	 -2.599671 	 -1.143352 	 -2.179558 
H 	 -0.653590 	 4.245622 	 7.267073 
H 	 -0.829404 	 4.585344 	 -6.083993 
H 	 -2.941005 	 -3.121462 	 -1.673989 
H 	 -1.532645 	 -3.798200 	 -2.031332 
H 	 5.630054 	 6.858336 	 4.570958 
H 	 5.279278 	 -6.834751 	 3.745526 
H 	 -0.066685 	 -1.303477 	 -1.731481 
H 	 -0.865284 	 0.003608 	 -2.440117 
H 	 4.516823 	 -3.376698 	 -2.424411 
H 	 4.507750 	 -2.704304 	 -1.011666 
H 	 -5.745939 	 -1.587433 	 -0.413811 
H 	 -4.964476 	 -0.606928 	 0.663175 
H 	 3.209336 	 7.274930 	 -6.339879 
H 	 2.365539 	 -6.408380 	 -6.446322 
H 	 -6.410592 	 -6.873667 	 -1.778046 
H 	 -4.907670 	 -7.076344 	 -1.291585 
H 	 5.826203 	 5.126455 	 -3.134487 
H 	 4.637154 	 4.187798 	 -3.322682 
H 	 -1.978574 	 2.000259 	 -5.762302 
H 	 -3.033654 	 0.868351 	 -5.717235 
H 	 0.376054 	 1.263428 	 5.577196 
H 	 -1.011203 	 0.626588 	 5.878242 
H 	 2.631752 	 0.324481 	 -7.128252 
H 	 3.784845 	 0.586588 	 6.801827 
H 	 -0.067689 	 -5.639069 	 5.727115 
H 	 -0.115875 	 -4.853893 	 7.082291 
H 	 4.087565 	 -1.839509 	 -7.155981 
H 	 3.601711 	 -3.202629 	 7.142107 
H 	 -4.577375 	 3.690931 	 5.192828 
H 	 -5.997086 	 4.231727 	 4.718003 
H 	 -3.201878 	 -6.059703 	 2.399793 
H 	 -3.420152 	 -7.010455 	 3.662963 
H 	 3.692356 	 2.518416 	 0.848896 
H 	 4.101031 	 3.387204 	 1.939821 
H 	 3.356159 	 7.167165 	 -2.012208 
H 	 2.200937 	 -6.847949 	 -2.444163 
H 	 1.214504 	 -4.717568 	 -4.007288 
H 	 0.368675 	 -5.236441 	 -2.836812 
H 	 3.767811 	 -5.820432 	 6.133095 
H 	 2.248493 	 -5.371308 	 6.311345 
H 	 -5.312429 	 -4.555687 	 -5.932439 
H 	 -4.818722 	 -4.001713 	 -4.630691 
H 	 -4.660970 	 1.354541 	 6.262396 
H 	 -5.057473 	 1.786175 	 -7.210256 
H 	 6.600530 	 -7.324431 	 -3.211099 
H 	 -7.395001 	 6.913088 	 -4.168993 
H 	 -5.481930 	 0.956839 	 -0.671805 
H 	 -5.895335 	 2.464446 	 -0.854193 
H 	 -6.498624 	 6.213768 	 -6.942721 
H 	 -7.316060 	 5.171365 	 7.094632 
H 	 -4.511460 	 -1.840095 	 -5.533414 
H 	 -3.916004 	 -1.157664 	 -4.214876 
H 	 -2.943848 	 3.348480 	 2.386645 
H 	 -4.317812 	 3.883611 	 2.709170 
H 	 6.739953 	 3.129793 	 4.503108 
H 	 6.363368 	 4.584129 	 4.646998 
H 	 -2.485618 	 2.916682 	 6.545861 
H 	 -2.338641 	 2.537165 	 4.964945 
H 	 2.794628 	 4.618659 	 7.401633 
H 	 3.633792 	 3.496420 	 6.987029 
H 	 3.667622 	 0.287903 	 -1.245658 
H 	 2.854305 	 0.677724 	 -2.474828 
H 	 6.674359 	 -1.337616 	 -3.590659 
H 	 6.511946 	 -2.734009 	 -4.310430 
H 	 1.972485 	 -4.331384 	 -5.913950 
H 	 3.328287 	 -4.283927 	 -5.157355 
H 	 6.716317 	 1.217636 	 -0.302294 
H 	 -7.395436 	 -0.029409 	 -0.215677 
H 	 -2.228522 	 -3.844550 	 0.517015 
H 	 -1.369699 	 -3.771822 	 1.774003 
H 	 -5.531552 	 7.364615 	 -3.848736 
H 	 -5.593837 	 -6.857055 	 -5.291302 
H 	 2.262617 	 -1.575845 	 -2.824716 
H 	 1.746396 	 -1.152855 	 -4.194838 
H 	 4.763732 	 4.917251 	 5.964944 
H 	 3.871912 	 6.102511 	 5.435940 
H 	 -3.211135 	 -5.483817 	 -5.123562 
H 	 -1.790405 	 -6.118767 	 -4.744411 
H 	 -1.119137 	 -3.810690 	 -3.983745 
H 	 -2.345132 	 -3.338977 	 -4.779717 
H 	 2.790187 	 2.010209 	 5.022000 
H 	 1.330911 	 1.305741 	 3.880181 
H 	 -2.790203 	 -0.535181 	 4.721669 
H 	 -1.936478 	 0.039320 	 3.505307 
H 	 -0.155093 	 6.365270 	 2.779984 
H 	 -1.626555 	 6.845254 	 2.762045 
H 	 5.686327 	 -4.567263 	 -4.695297 
H 	 4.896929 	 -3.593499 	 -5.847237 
H 	 6.898613 	 0.577506 	 5.587259 
H 	 -6.959005 	 1.656613 	 5.683936 
H 	 5.244066 	 -2.380416 	 5.213005 
H 	 4.367529 	 -3.734466 	 4.912461 
H 	 3.630144 	 2.312130 	 -4.374016 
H 	 3.100146 	 3.528722 	 -5.294515 
H 	 7.363484 	 -5.097258 	 -2.437484 
H 	 6.463638 	 -5.762913 	 -1.328981 
H 	 -4.601822 	 5.137624 	 7.436440 
H 	 -3.112138 	 5.186421 	 -7.006699 
H 	 5.203940 	 -6.797590 	 -7.095899 
H 	 5.742088 	 -6.323347 	 6.448541 
H 	 5.829615 	 6.022238 	 -6.820688 
H 	 5.703541 	 6.704255 	 -5.387476 
H 	 4.284593 	 0.531515 	 -5.869618 
H 	 3.797530 	 0.008086 	 -4.505944 
H 	 1.483629 	 -2.985602 	 1.784824 
H 	 1.312197 	 -4.341935 	 0.964057 
H 	 5.256740 	 -1.000574 	 0.166319 
H 	 4.069137 	 -1.371088 	 1.042630 
H 	 -6.476599 	 -5.288978 	 7.309322 
H 	 7.397020 	 -5.648617 	 -6.430571 
H 	 0.638872 	 -2.277125 	 -6.244425 
H 	 0.902051 	 -2.418917 	 7.155506 
H 	 -0.353873 	 -6.614479 	 -6.730444 
H 	 -0.285058 	 6.883201 	 -6.115796 
H 	 0.700021 	 0.196650 	 1.480385 
H 	 2.138538 	 0.088700 	 2.132639 
H 	 2.192021 	 -6.441873 	 2.364749 
H 	 2.149979 	 7.150425 	 1.396925 
H 	 -2.991182 	 0.315961 	 1.268487 
H 	 -4.043210 	 1.578312 	 1.424911 
H 	 -4.130881 	 -6.072230 	 -6.939932 
H 	 -2.703942 	 -6.694706 	 -7.116191 
H 	 1.219417 	 3.559352 	 5.500622 
H 	 1.185244 	 5.167021 	 5.758055 
H 	 -1.020942 	 -5.824321 	 3.511000 
H 	 -0.113280 	 -4.524309 	 3.826258 
H 	 -6.268109 	 -2.888324 	 -3.370285 
H 	 -5.467185 	 -3.459907 	 -2.278399 
H 	 -0.418497 	 1.954910 	 -3.372784 
H 	 -1.829252 	 1.841372 	 -2.928291 
H 	 4.995563 	 5.641863 	 -1.338393 
H 	 4.289023 	 5.833991 	 0.043525 
H 	 -0.359134 	 3.063221 	 -0.226720 
H 	 -0.931436 	 3.081052 	 1.218234 
H 	 -0.382510 	 6.288837 	 0.022477 
H 	 -1.640367 	 5.570995 	 -0.438669 
H 	 6.365903 	 0.777736 	 2.938696 
H 	 5.323826 	 1.771403 	 2.300042 
H 	 6.863645 	 3.139310 	 6.979774 
H 	 6.567319 	 3.946279 	 -6.642257 
H 	 -4.028263 	 -3.679443 	 2.481293 
H 	 -5.293706 	 -4.419730 	 3.109098 
H 	 2.417430 	 4.809763 	 1.592981 
H 	 1.840492 	 4.913098 	 0.167879 
H 	 0.691703 	 -0.645448 	 5.804236 
H 	 2.125588 	 -1.208413 	 5.767354 
H 	 -5.190832 	 0.389791 	 -4.910453 
H 	 -6.557628 	 0.866781 	 -4.297606 
H 	 -1.050827 	 -0.258743 	 0.025888 
H 	 -1.144224 	 -1.359560 	 1.055924 
H 	 0.079395 	 -7.334549 	 -3.442844 
H 	 -0.358245 	 6.954507 	 -2.085066 
H 	 -3.320357 	 2.278797 	 -1.498365 
H 	 -2.349707 	 3.430567 	 -1.314941 
H 	 -5.677257 	 0.010125 	 2.389358 
H 	 -6.912382 	 -0.944373 	 2.569169 
H 	 4.778504 	 -4.888391 	 -0.673522 
H 	 4.587031 	 -6.480665 	 -0.540395 
H 	 -7.388631 	 -1.331175 	 6.265869 
H 	 -7.316692 	 -1.455086 	 4.791512 
H 	 -7.096227 	 -3.675022 	 4.856944 
H 	 -7.012277 	 -5.195152 	 4.394047 
H 	 -6.374119 	 -0.534700 	 -7.183999 
H 	 -6.976414 	 -1.557659 	 -6.299060 
H 	 3.252564 	 4.324424 	 4.208923 
H 	 2.076872 	 3.489071 	 3.587460 
H 	 6.056364 	 -2.703872 	 3.492896 
H 	 7.017398 	 -3.635351 	 2.589633 
H 	 6.609889 	 3.499441 	 -1.066571 
H 	 -7.429530 	 4.002317 	 0.158381 
H 	 0.277562 	 4.912403 	 -4.078700 
H 	 -1.210977 	 5.633209 	 -4.283616 
H 	 -4.518202 	 -2.377789 	 5.875828 
H 	 -4.430506 	 -2.634725 	 4.304685 
H 	 7.392468 	 4.266334 	 2.320822 
H 	 -6.737031 	 5.539154 	 1.977938 
H 	 4.065219 	 -5.686874 	 1.550811 
H 	 4.120591 	 -4.543588 	 2.573409 
H 	 -7.083732 	 -3.777816 	 -0.042193 
H 	 6.835701 	 -2.908676 	 -0.847541 
H 	 4.397690 	 -0.399229 	 2.870479 
H 	 3.639591 	 -1.754577 	 3.362969 
H 	 -0.577138 	 -1.790308 	 -4.411314 
H 	 -0.106485 	 -0.354392 	 -5.077160 
H 	 1.264974 	 -3.301074 	 -1.787742 
H 	 1.801307 	 -2.613816 	 -0.495514 
H 	 0.600906 	 4.256369 	 -2.013758 
H 	 1.562252 	 3.588250 	 -2.951824 
H 	 0.242192 	 -6.419628 	 1.119574 
H 	 -0.358957 	 -6.060840 	 -0.268510 
H 	 1.625433 	 2.155390 	 0.661163 
H 	 2.189158 	 2.259386 	 -0.786409 
H 	 -0.804000 	 -2.208085 	 3.670428 
H 	 0.665330 	 -2.405094 	 4.022473 
H 	 4.286950 	 1.468450 	 4.741916 
H 	 0.272916 	 0.972181 	 -6.924840 
H 	 -2.683104 	 -6.336907 	 -0.178515 
H 	 -3.515907 	 7.290252 	 0.185630 
H 	 -6.852917 	 -6.435596 	 1.354815 
H 	 6.643048 	 -5.832898 	 0.897993 
H 	 5.819830 	 1.145264 	 -2.601994 
H 	 5.900879 	 0.795897 	 -4.107512 
H 	 2.276744 	 7.126668 	 6.366144 
H 	 2.478947 	 -7.108209 	 5.154752 
H 	 0.522561 	 2.096230 	 -5.900000 
O 	 -4.454118 	 7.209191 	 4.836393 
O 	 -7.420784 	 3.542713 	 -4.997109 
O 	 -2.639654 	 6.428272 	 -3.581102 
O 	 -6.629943 	 7.179273 	 2.743281 
O 	 -3.587014 	 5.528927 	 -0.106843 
O 	 -5.488957 	 4.874986 	 -2.168637 
O 	 -1.278445 	 2.995941 	 3.391751 
O 	 -3.482137 	 -1.545895 	 -2.193244 
O 	 -1.302235 	 4.442006 	 -6.890482 
O 	 -2.260304 	 -3.780893 	 -1.370548 
O 	 5.961684 	 -7.154278 	 4.350174 
O 	 -0.813063 	 -0.672494 	 -1.666373 
O 	 4.957353 	 -3.384464 	 -1.559433 
O 	 -5.359021 	 -0.705389 	 -0.240519 
O 	 2.376874 	 -7.361622 	 -6.732341 
O 	 -5.549761 	 -7.247490 	 -2.012387 
O 	 5.402314 	 4.345279 	 -2.725590 
O 	 -2.833802 	 1.719070 	 -6.169579 
O 	 -0.155900 	 0.769599 	 6.315160 
O 	 3.458798 	 -0.061784 	 7.442499 
O 	 0.252726 	 -5.700462 	 6.688746 
O 	 4.344100 	 -2.791819 	 -7.236513 
O 	 -5.015427 	 4.270961 	 4.589202 
O 	 -2.748094 	 -6.640896 	 3.057379 
O 	 4.481271 	 2.980754 	 1.136281 
O 	 3.144884 	 -7.013364 	 -2.621882 
O 	 0.614871 	 -4.350781 	 -3.277456 
O 	 3.032190 	 -5.272946 	 5.719708 
O 	 -4.562465 	 -4.061911 	 -5.550826 
O 	 -5.405427 	 1.366965 	 6.867064 
O 	 6.577864 	 6.782692 	 -3.775050 
O 	 -5.098544 	 1.832480 	 -0.914704 
O 	 -6.641616 	 5.891819 	 7.054993 
O 	 -4.276902 	 -0.997934 	 -5.109556 
O 	 -3.750706 	 3.545838 	 1.919470 
O 	 6.933881 	 4.003774 	 4.159131 
O 	 -2.994766 	 2.736186 	 5.688968 
O 	 3.670641 	 4.233410 	 -7.276779 
O 	 3.196795 	 1.070845 	 -1.597776 
O 	 7.146807 	 -1.975762 	 -4.186497 
O 	 2.517024 	 -4.820429 	 -5.280583 
O 	 6.627368 	 0.276073 	 -0.115317 
O 	 -2.207019 	 -3.438148 	 1.428988 
O 	 -5.836653 	 7.252216 	 -4.779112 
O 	 2.544150 	 -1.069494 	 -3.662002 
O 	 4.604030 	 5.462864 	 5.210499 
O 	 -2.678150 	 -5.802462 	 -4.359541 
O 	 -1.614597 	 -2.966030 	 -4.214965 
O 	 1.122777 	 2.078295 	 4.427887 
O 	 -1.880286 	 -0.519341 	 4.288716 
O 	 -1.046322 	 6.068774 	 2.497712 
O 	 5.124923 	 -3.739445 	 -4.889563 
O 	 6.929276 	 1.550146 	 5.702296 
O 	 4.652612 	 -2.840021 	 4.515473 
O 	 3.219243 	 3.226522 	 -4.301586 
O 	 7.073124 	 -5.963467 	 -2.131600 
O 	 -4.033188 	 5.015047 	 -6.736572 
O 	 5.283582 	 -5.950486 	 7.245302 
O 	 5.241842 	 6.565163 	 -6.289029 
O 	 4.324526 	 0.776477 	 -4.938701 
O 	 1.902921 	 -3.607881 	 1.191096 
O 	 4.348517 	 -1.307427 	 0.062432 
O 	 -6.570962 	 -5.625242 	 -6.679809 
O 	 0.709242 	 -2.964890 	 -6.956750 
O 	 -0.809028 	 -7.141702 	 -6.050933 
O 	 1.588888 	 0.663857 	 1.553843 
O 	 1.686150 	 -6.965176 	 1.713228 
O 	 -3.804221 	 0.651686 	 1.715022 
O 	 -3.556458 	 -6.512343 	 7.307886 
O 	 1.039670 	 4.288827 	 6.167488 
O 	 -0.125688 	 -5.485250 	 3.789976 
O 	 -5.806324 	 -3.733249 	 -3.159093 
O 	 -1.136002 	 1.293092 	 -3.453219 
O 	 4.905631 	 6.289133 	 -0.553662 
O 	 -1.202034 	 3.183601 	 0.260569 
O 	 -0.706632 	 5.747022 	 -0.719745 
O 	 5.435346 	 1.032973 	 2.968087 
O 	 6.432355 	 3.982404 	 7.290475 
O 	 -4.970239 	 -3.548195 	 2.751999 
O 	 2.181543 	 5.514393 	 0.895776 
O 	 1.197742 	 -1.490549 	 5.637091 
O 	 -5.802095 	 1.183305 	 -4.789704 
O 	 -1.207404 	 -0.374996 	 0.983743 
O 	 0.103296 	 -7.147633 	 -2.469910 
O 	 -2.787423 	 2.942163 	 -2.022010 
O 	 -6.533707 	 -0.114896 	 2.943793 
O 	 4.924599 	 -5.677409 	 -0.125306 
O 	 6.924619 	 -1.201023 	 5.472956 
O 	 -6.813691 	 -4.586731 	 5.147198 
O 	 -6.688609 	 -1.462239 	 -7.205858 
O 	 2.772833 	 4.161086 	 3.371013 
O 	 6.951043 	 -2.784960 	 3.099943 
O 	 -7.431177 	 3.379712 	 -0.623459 
O 	 -0.201023 	 5.625522 	 -4.594824 
O 	 -4.248182 	 -1.953952 	 5.018233 
O 	 -7.157568 	 4.796959 	 1.529774 
O 	 4.049767 	 -5.537335 	 2.544073 
O 	 -7.229469 	 -2.869632 	 -0.351234 
O 	 3.680024 	 -1.073621 	 2.673967 
O 	 0.139519 	 -1.263938 	 -4.908843 
O 	 1.502275 	 -2.433798 	 -1.399727 
O 	 0.572404 	 3.697240 	 -2.805961 
O 	 -0.575016 	 -5.984092 	 0.677914 
O 	 1.612461 	 2.752599 	 -0.149815 
O 	 -0.047129 	 -2.810930 	 3.461229 
O 	 3.752331 	 2.014487 	 5.337062 
O 	 -3.583411 	 -6.670916 	 -0.102742 
O 	 -7.340237 	 -5.654429 	 1.060575 
O 	 6.423483 	 0.805940 	 -3.323182 
O 	 2.244897 	 6.886061 	 5.439498 
O 	 0.713742 	 1.184613 	 -6.066481 
K 	 -4.320643 	 3.780723 	 -4.438531 
