333
conformation = 63
H 	 -4.516863 	 6.292309 	 4.887217 
H 	 -4.239119 	 -7.259144 	 5.864083 
H 	 6.887859 	 3.381277 	 -4.213942 
H 	 -6.964759 	 2.739956 	 -5.030301 
H 	 -2.856107 	 6.245234 	 -2.496696 
H 	 -2.756468 	 7.415964 	 -3.580900 
H 	 -7.397922 	 7.327367 	 3.346488 
H 	 -5.933826 	 7.097162 	 3.632979 
H 	 -3.668198 	 4.988907 	 0.749356 
H 	 -4.191836 	 5.304441 	 -0.695506 
H 	 -6.194900 	 4.456859 	 -1.574767 
H 	 -5.619229 	 5.872988 	 -1.997150 
H 	 -0.276663 	 2.798575 	 3.732591 
H 	 -1.197468 	 4.023141 	 3.353886 
H 	 -3.953822 	 -0.984058 	 -1.445025 
H 	 -2.524522 	 -1.196642 	 -1.892483 
H 	 -0.482432 	 4.366154 	 7.500465 
H 	 -0.760616 	 4.703787 	 -5.992056 
H 	 -2.643601 	 -2.963391 	 -1.725028 
H 	 -1.374216 	 -3.820928 	 -1.768344 
H 	 5.613766 	 6.975286 	 4.641969 
H 	 5.429241 	 -6.641551 	 3.783993 
H 	 0.032939 	 -1.164202 	 -1.747287 
H 	 -0.760730 	 0.063889 	 -2.232368 
H 	 4.624378 	 -3.334010 	 -2.354812 
H 	 4.488176 	 -2.690266 	 -0.899838 
H 	 -5.770078 	 -1.561032 	 -0.031524 
H 	 -4.829406 	 -0.516512 	 0.706622 
H 	 3.363620 	 7.286892 	 -6.323385 
H 	 2.406845 	 -6.368023 	 -6.380165 
H 	 -6.326217 	 -6.890485 	 -1.514582 
H 	 -4.802145 	 -6.964483 	 -1.296061 
H 	 5.946186 	 5.126931 	 -3.052806 
H 	 4.602164 	 4.251459 	 -3.115644 
H 	 -1.995189 	 2.071016 	 -5.594885 
H 	 -2.952527 	 0.808565 	 -5.792234 
H 	 0.487577 	 1.365123 	 5.679918 
H 	 -0.981098 	 0.768746 	 5.947537 
H 	 2.644815 	 0.402080 	 -7.061606 
H 	 3.811061 	 0.619526 	 6.854972 
H 	 0.024157 	 -5.587294 	 5.803061 
H 	 -0.094376 	 -4.939344 	 7.297691 
H 	 4.074707 	 -1.794889 	 -7.253571 
H 	 3.655690 	 -3.280654 	 7.244881 
H 	 -4.591589 	 3.574643 	 5.220068 
H 	 -5.989072 	 4.282855 	 4.758849 
H 	 -3.244687 	 -6.137566 	 2.414177 
H 	 -3.351909 	 -6.887854 	 3.780685 
H 	 3.825171 	 2.593845 	 0.752332 
H 	 4.012742 	 3.441311 	 2.066401 
H 	 3.203839 	 7.180831 	 -1.976081 
H 	 2.270394 	 -6.783542 	 -2.609002 
H 	 1.374970 	 -4.472666 	 -3.879715 
H 	 0.379364 	 -5.165415 	 -2.776338 
H 	 3.815214 	 -5.770455 	 6.327542 
H 	 2.322557 	 -5.431520 	 6.359972 
H 	 -5.258645 	 -4.318447 	 -5.921580 
H 	 -4.828057 	 -3.959177 	 -4.510795 
H 	 -4.581142 	 1.278973 	 6.494183 
H 	 -5.072685 	 1.927427 	 -7.109814 
H 	 6.515956 	 -7.251530 	 -3.032770 
H 	 -7.395582 	 6.860591 	 -4.033703 
H 	 -5.350380 	 0.964369 	 -0.493770 
H 	 -5.736498 	 2.513115 	 -0.641373 
H 	 -6.411725 	 6.022089 	 -6.808447 
H 	 -7.250276 	 5.246443 	 7.130973 
H 	 -4.570380 	 -1.779067 	 -5.371104 
H 	 -3.926567 	 -1.275704 	 -4.140877 
H 	 -2.924258 	 3.303092 	 2.387899 
H 	 -4.288393 	 4.004189 	 2.746731 
H 	 6.992596 	 3.271261 	 4.734218 
H 	 6.317101 	 4.598069 	 4.666951 
H 	 -2.345451 	 2.660311 	 6.571901 
H 	 -2.353298 	 2.722469 	 4.993391 
H 	 2.816527 	 4.607329 	 -7.255239 
H 	 3.799061 	 3.454309 	 7.197343 
H 	 3.795026 	 0.442820 	 -1.101279 
H 	 3.013662 	 0.834868 	 -2.438181 
H 	 6.763508 	 -1.306529 	 -3.418128 
H 	 6.588246 	 -2.643831 	 -4.155608 
H 	 2.099554 	 -4.214632 	 -5.938265 
H 	 3.312439 	 -4.296124 	 -4.940982 
H 	 6.759094 	 1.309003 	 -0.198712 
H 	 -7.397856 	 -0.006135 	 0.031180 
H 	 -2.264023 	 -3.792148 	 0.652122 
H 	 -1.486436 	 -3.797036 	 2.027305 
H 	 -5.432794 	 7.414534 	 -3.845445 
H 	 -5.586578 	 -6.783445 	 -5.168003 
H 	 2.371811 	 -1.547637 	 -2.698013 
H 	 1.914339 	 -1.144412 	 -4.148893 
H 	 4.806310 	 4.928038 	 6.072322 
H 	 3.908476 	 5.996569 	 5.708962 
H 	 -3.126518 	 -5.440102 	 -5.133574 
H 	 -1.782319 	 -6.071756 	 -4.643076 
H 	 -0.995141 	 -3.730815 	 -3.833707 
H 	 -2.349822 	 -3.202706 	 -4.657259 
H 	 2.854274 	 1.977937 	 5.116825 
H 	 1.316306 	 1.515659 	 3.755575 
H 	 -2.778177 	 -0.466031 	 4.755077 
H 	 -1.926157 	 0.159944 	 3.661645 
H 	 -0.127422 	 6.526871 	 2.731187 
H 	 -1.644824 	 6.826351 	 2.649300 
H 	 5.849006 	 -4.387358 	 -4.651053 
H 	 5.197068 	 -3.564486 	 -5.760433 
H 	 6.933901 	 0.620024 	 5.673859 
H 	 -6.866717 	 1.699910 	 6.061970 
H 	 5.380077 	 -2.374594 	 5.175597 
H 	 4.418540 	 -3.616418 	 5.074499 
H 	 3.808165 	 2.447302 	 -4.393683 
H 	 3.231278 	 3.628909 	 -5.228588 
H 	 7.252614 	 -5.034111 	 -2.371216 
H 	 6.437615 	 -5.856430 	 -1.287587 
H 	 -4.477430 	 5.334266 	 7.573386 
H 	 -3.030126 	 5.045130 	 -6.995644 
H 	 5.455352 	 -6.743106 	 -7.018045 
H 	 5.780403 	 -6.147332 	 6.488326 
H 	 5.664381 	 5.781373 	 -6.547429 
H 	 5.708375 	 6.721657 	 -5.318506 
H 	 4.212687 	 0.480650 	 -5.753071 
H 	 3.852120 	 0.150391 	 -4.268949 
H 	 1.487680 	 -3.104586 	 1.898909 
H 	 1.286148 	 -4.291562 	 1.096244 
H 	 5.277846 	 -0.874410 	 0.154728 
H 	 4.114506 	 -1.448604 	 1.141886 
H 	 -6.473678 	 -5.175458 	 7.424245 
H 	 -7.397540 	 -5.448852 	 -6.398852 
H 	 0.498928 	 -2.365055 	 -6.152753 
H 	 0.729163 	 -2.383864 	 7.217060 
H 	 -0.281023 	 -6.669860 	 -6.774740 
H 	 -0.231515 	 7.027078 	 -5.679746 
H 	 0.682279 	 0.429946 	 1.585787 
H 	 2.197882 	 0.059462 	 2.052663 
H 	 2.344225 	 -6.421935 	 2.383164 
H 	 2.164893 	 7.184192 	 1.565976 
H 	 -2.902005 	 0.433748 	 1.322202 
H 	 -3.858396 	 1.570263 	 1.477020 
H 	 -4.001239 	 -5.938009 	 -6.852806 
H 	 -2.668078 	 -6.735535 	 -7.161402 
H 	 1.308121 	 3.602438 	 5.653568 
H 	 1.174996 	 5.150338 	 5.791250 
H 	 -1.017423 	 -5.644098 	 3.572833 
H 	 -0.203567 	 -4.456120 	 3.938347 
H 	 -6.272560 	 -2.913411 	 -3.378062 
H 	 -5.128467 	 -3.458141 	 -2.330613 
H 	 -0.342189 	 1.846491 	 -3.302192 
H 	 -1.790198 	 1.826366 	 -2.766234 
H 	 4.995582 	 5.551544 	 -1.135572 
H 	 4.472138 	 5.954853 	 0.226434 
H 	 -0.251028 	 3.127179 	 -0.015444 
H 	 -1.014031 	 3.224275 	 1.298982 
H 	 -0.201913 	 6.054028 	 0.192388 
H 	 -1.609481 	 5.807498 	 -0.342056 
H 	 6.439222 	 0.865715 	 2.977867 
H 	 5.272431 	 1.749384 	 2.395844 
H 	 6.761733 	 3.170712 	 6.956744 
H 	 6.616803 	 3.798054 	 -6.515828 
H 	 -3.969521 	 -3.541240 	 2.531607 
H 	 -5.137454 	 -4.324509 	 3.347110 
H 	 2.430471 	 4.890854 	 1.746366 
H 	 1.939205 	 5.047857 	 0.186492 
H 	 0.622753 	 -0.599968 	 5.931978 
H 	 2.099853 	 -1.209950 	 5.895957 
H 	 -5.174138 	 0.476507 	 -4.663433 
H 	 -6.514092 	 0.966661 	 -4.122230 
H 	 -0.918985 	 -0.171768 	 0.156267 
H 	 -1.041998 	 -1.309442 	 1.133071 
H 	 0.233589 	 -7.359103 	 -3.296216 
H 	 -0.482574 	 7.099378 	 -2.017207 
H 	 -3.365992 	 2.474255 	 -1.281729 
H 	 -2.172714 	 3.378609 	 -1.309717 
H 	 -5.672939 	 0.128964 	 2.476069 
H 	 -6.804131 	 -0.987586 	 2.770463 
H 	 4.739277 	 -4.886434 	 -0.582192 
H 	 4.429410 	 -6.378947 	 -0.498822 
H 	 7.331900 	 -1.442717 	 6.377592 
H 	 -7.246707 	 -1.134200 	 4.823451 
H 	 -7.008620 	 -3.744155 	 4.799881 
H 	 -6.846762 	 -5.281557 	 4.553682 
H 	 -6.288051 	 -0.480649 	 -7.141469 
H 	 -7.119572 	 -1.521798 	 -6.329746 
H 	 3.345961 	 4.521827 	 4.276020 
H 	 2.314734 	 3.434774 	 3.788332 
H 	 6.041692 	 -2.759867 	 3.450908 
H 	 6.990890 	 -3.669751 	 2.758448 
H 	 6.707040 	 3.639699 	 -1.080718 
H 	 -7.342875 	 4.125219 	 0.227509 
H 	 0.110158 	 5.020473 	 -3.839232 
H 	 -1.189504 	 5.868821 	 -4.207707 
H 	 -4.464538 	 -2.498149 	 5.828685 
H 	 -4.335384 	 -2.495726 	 4.260219 
H 	 7.470645 	 4.208855 	 2.330085 
H 	 -6.765699 	 5.602625 	 2.091897 
H 	 4.093208 	 -5.635051 	 1.688174 
H 	 4.190602 	 -4.506433 	 2.819646 
H 	 -7.121165 	 -3.712916 	 0.100745 
H 	 6.839327 	 -2.816058 	 -0.761167 
H 	 4.415174 	 -0.291910 	 3.031390 
H 	 3.869545 	 -1.683404 	 3.450291 
H 	 -0.645492 	 -1.597179 	 -4.333341 
H 	 -0.095685 	 -0.341492 	 -5.121104 
H 	 1.210182 	 -3.211743 	 -1.776142 
H 	 1.653498 	 -2.641372 	 -0.370537 
H 	 0.618151 	 4.255584 	 -1.889837 
H 	 1.550318 	 3.540636 	 -3.090073 
H 	 0.255039 	 -6.365865 	 1.133982 
H 	 -0.255737 	 -5.896222 	 -0.217523 
H 	 1.595099 	 2.131142 	 0.631305 
H 	 2.157286 	 2.290745 	 -0.755043 
H 	 -0.858695 	 -2.187953 	 3.788477 
H 	 0.567766 	 -2.454938 	 4.335363 
H 	 4.306647 	 1.828099 	 4.689219 
H 	 0.400508 	 1.164393 	 -6.919013 
H 	 -2.729683 	 -6.174171 	 -0.049604 
H 	 -3.312081 	 7.310365 	 0.041990 
H 	 -7.019426 	 -6.463739 	 1.433907 
H 	 6.751968 	 -5.794103 	 0.797489 
H 	 5.748161 	 1.034182 	 -2.568266 
H 	 5.930239 	 0.933995 	 -4.009990 
H 	 2.270397 	 7.183088 	 6.482831 
H 	 2.375476 	 -7.111168 	 5.037995 
H 	 0.708585 	 2.120488 	 -5.805848 
O 	 -4.396436 	 7.262392 	 4.959174 
O 	 -7.398221 	 3.587203 	 -4.968114 
O 	 -2.599511 	 6.458218 	 -3.400619 
O 	 -6.516149 	 7.241923 	 2.870413 
O 	 -3.535969 	 5.570579 	 -0.024437 
O 	 -5.438098 	 4.897402 	 -2.085149 
O 	 -1.192097 	 3.054537 	 3.466414 
O 	 -3.430270 	 -1.488746 	 -2.106727 
O 	 -1.267471 	 4.525271 	 -6.785084 
O 	 -2.215468 	 -3.734973 	 -1.262128 
O 	 6.011695 	 -7.070111 	 4.436679 
O 	 -0.764926 	 -0.636289 	 -1.528615 
O 	 4.971830 	 -3.368555 	 -1.441550 
O 	 -5.326610 	 -0.697766 	 -0.121239 
O 	 2.472021 	 -7.340954 	 -6.548708 
O 	 -5.514239 	 -7.233153 	 -1.921495 
O 	 5.417717 	 4.418911 	 -2.660305 
O 	 -2.816649 	 1.752875 	 -6.050323 
O 	 -0.092026 	 0.782495 	 6.378504 
O 	 3.448864 	 -0.040010 	 7.522480 
O 	 0.331125 	 -5.623494 	 6.741852 
O 	 4.389192 	 -2.743301 	 -7.203808 
O 	 -5.004051 	 4.287241 	 4.698385 
O 	 -2.708250 	 -6.576971 	 3.124023 
O 	 4.484029 	 3.047848 	 1.286377 
O 	 3.227389 	 -6.946964 	 -2.526934 
O 	 0.645603 	 -4.288025 	 -3.190302 
O 	 3.112102 	 -5.279528 	 5.803931 
O 	 -4.486162 	 -3.996920 	 -5.435511 
O 	 -5.384825 	 1.407249 	 7.007651 
O 	 6.613215 	 6.864643 	 -3.632011 
O 	 -5.034424 	 1.836633 	 -0.832189 
O 	 -6.550474 	 5.949133 	 7.135560 
O 	 -4.198278 	 -0.958316 	 -4.996973 
O 	 -3.759934 	 3.548597 	 2.012062 
O 	 6.955123 	 4.054715 	 4.235276 
O 	 -2.955118 	 2.810185 	 5.791108 
O 	 3.722879 	 4.246546 	 -7.135937 
O 	 3.245949 	 1.109518 	 -1.501383 
O 	 7.216251 	 -1.868525 	 -4.093530 
O 	 2.514681 	 -4.766091 	 -5.231061 
O 	 6.646341 	 0.355557 	 -0.016455 
O 	 -2.131857 	 -3.323954 	 1.491490 
O 	 -5.821684 	 7.267610 	 -4.745207 
O 	 2.669512 	 -1.054501 	 -3.535416 
O 	 4.664009 	 5.495348 	 5.327498 
O 	 -2.660757 	 -5.736391 	 -4.334359 
O 	 -1.541794 	 -2.962089 	 -4.140125 
O 	 1.182654 	 2.113980 	 4.520245 
O 	 -1.865867 	 -0.507760 	 4.361213 
O 	 -0.994240 	 6.077894 	 2.635044 
O 	 5.128672 	 -3.678873 	 -4.782766 
O 	 7.056776 	 1.545595 	 5.798632 
O 	 4.688081 	 -2.783613 	 4.576155 
O 	 3.237714 	 3.272787 	 -4.247260 
O 	 7.124429 	 -5.920337 	 -2.012845 
O 	 -3.934765 	 5.003130 	 -6.627450 
O 	 5.323954 	 -5.914771 	 7.327253 
O 	 5.307588 	 6.614521 	 -6.228234 
O 	 4.338530 	 0.815808 	 -4.865677 
O 	 1.964788 	 -3.602107 	 1.221654 
O 	 4.401856 	 -1.303002 	 0.194097 
O 	 -6.457441 	 -5.592321 	 -6.576191 
O 	 0.760051 	 -2.936024 	 -6.884384 
O 	 -0.762935 	 -7.071484 	 -6.028145 
O 	 1.644433 	 0.730884 	 1.602915 
O 	 1.717997 	 -6.892898 	 1.801678 
O 	 -3.752155 	 0.617769 	 1.762564 
O 	 -3.545965 	 -6.461641 	 7.370814 
O 	 1.004657 	 4.320236 	 6.276909 
O 	 -0.083478 	 -5.409261 	 3.867153 
O 	 -5.720949 	 -3.682781 	 -3.059448 
O 	 -1.165636 	 1.353035 	 -3.376931 
O 	 5.028056 	 6.303832 	 -0.475509 
O 	 -1.159707 	 3.239885 	 0.312548 
O 	 -0.658262 	 5.786196 	 -0.631596 
O 	 5.483714 	 1.084718 	 3.116955 
O 	 6.516538 	 4.048193 	 7.402790 
O 	 -4.894071 	 -3.523619 	 2.828943 
O 	 2.249428 	 5.551446 	 0.988289 
O 	 1.170637 	 -1.435434 	 5.708479 
O 	 -5.769232 	 1.288308 	 -4.627580 
O 	 -1.114532 	 -0.318605 	 1.080147 
O 	 0.121625 	 -7.103927 	 -2.365235 
O 	 -2.761165 	 2.959297 	 -1.914715 
O 	 -6.505588 	 -0.083588 	 3.018933 
O 	 4.960747 	 -5.686648 	 -0.093912 
O 	 6.966448 	 -1.151031 	 5.506161 
O 	 -6.735382 	 -4.598504 	 5.257512 
O 	 -6.604115 	 -1.399340 	 -7.139487 
O 	 2.806168 	 4.243951 	 3.526662 
O 	 6.986933 	 -2.780314 	 3.216049 
O 	 -7.405078 	 3.426095 	 -0.539194 
O 	 -0.217984 	 5.706423 	 -4.516756 
O 	 -4.171876 	 -1.895079 	 5.087805 
O 	 -7.081949 	 4.823828 	 1.607834 
O 	 4.143917 	 -5.484510 	 2.683172 
O 	 -7.211229 	 -2.830520 	 -0.300896 
O 	 3.728458 	 -0.991861 	 2.767272 
O 	 0.177051 	 -1.229727 	 -4.805457 
O 	 1.516843 	 -2.394681 	 -1.292563 
O 	 0.624099 	 3.728133 	 -2.705904 
O 	 -0.515583 	 -5.962371 	 0.721247 
O 	 1.675372 	 2.843305 	 -0.096695 
O 	 -0.047937 	 -2.754259 	 3.579175 
O 	 3.767991 	 2.051844 	 5.474474 
O 	 -3.566418 	 -6.645514 	 -0.018134 
O 	 -7.273840 	 -5.594401 	 1.098570 
O 	 6.476001 	 0.846397 	 -3.237699 
O 	 2.275985 	 6.973531 	 5.535402 
O 	 0.792870 	 1.189346 	 -5.998620 
K 	 -4.262140 	 3.833574 	 -4.371686 
