333
conformation = 6
H 	 -5.105913 	 6.234785 	 5.021085 
H 	 -4.390987 	 -7.317379 	 5.675079 
H 	 6.467167 	 3.642904 	 -4.541708 
H 	 -7.546198 	 2.486920 	 -5.045875 
H 	 -2.680084 	 6.462900 	 -2.276300 
H 	 -2.986023 	 7.156361 	 -3.574113 
H 	 -7.459703 	 7.244237 	 3.462238 
H 	 -5.925025 	 7.358238 	 3.665560 
H 	 -3.898689 	 4.773084 	 0.527644 
H 	 -4.372453 	 5.177991 	 -0.928200 
H 	 -6.375310 	 4.422029 	 -1.556246 
H 	 -5.873232 	 5.722739 	 -2.165829 
H 	 -0.446530 	 2.688000 	 3.382638 
H 	 -1.064738 	 4.135106 	 3.117457 
H 	 -4.355594 	 -1.235692 	 -1.569981 
H 	 -2.833861 	 -1.121100 	 -2.043590 
H 	 -0.675960 	 4.478185 	 7.335395 
H 	 -1.115726 	 5.128880 	 -6.303450 
H 	 -2.820934 	 -3.368215 	 -1.892080 
H 	 -1.530723 	 -4.249112 	 -1.618451 
H 	 5.432141 	 7.233963 	 4.686359 
H 	 5.108660 	 -6.520470 	 3.748633 
H 	 -0.363191 	 -1.466060 	 -1.601413 
H 	 -0.902440 	 -0.093237 	 -2.331157 
H 	 4.409816 	 -3.316540 	 -2.415477 
H 	 4.174929 	 -2.726199 	 -0.906159 
H 	 -6.201325 	 -1.840085 	 -0.155764 
H 	 -5.189655 	 -0.876314 	 0.767042 
H 	 3.318743 	 7.198860 	 -6.134854 
H 	 2.064853 	 -6.727150 	 -6.030236 
H 	 -6.606593 	 -7.137644 	 -1.982094 
H 	 -5.255853 	 -7.124797 	 -1.245670 
H 	 5.436421 	 5.285952 	 -3.307148 
H 	 4.415351 	 4.011024 	 -3.336155 
H 	 -2.460091 	 1.448213 	 -5.386470 
H 	 -3.793466 	 0.801284 	 -5.968298 
H 	 0.209680 	 1.324531 	 5.371568 
H 	 -1.179904 	 0.629384 	 5.513224 
H 	 2.079051 	 0.209309 	 -7.207155 
H 	 3.163316 	 0.647764 	 6.640489 
H 	 -0.226113 	 -5.427741 	 5.529329 
H 	 0.098357 	 -4.793713 	 6.964825 
H 	 3.458279 	 -2.087947 	 7.313295 
H 	 3.612725 	 -3.640924 	 7.059534 
H 	 -4.903362 	 3.811947 	 5.222938 
H 	 -6.386313 	 4.211696 	 4.597486 
H 	 -3.434916 	 -6.721448 	 1.933362 
H 	 -3.616169 	 -7.027836 	 3.443998 
H 	 3.862332 	 3.314215 	 0.553767 
H 	 3.336398 	 3.403547 	 2.024810 
H 	 3.326454 	 7.009076 	 -2.509210 
H 	 2.158703 	 -7.009013 	 -2.777395 
H 	 0.939619 	 -4.628466 	 -4.018498 
H 	 0.100518 	 -5.359351 	 -3.025276 
H 	 3.456296 	 -5.840803 	 6.310744 
H 	 2.058114 	 -5.451862 	 5.887436 
H 	 -5.212518 	 -4.185564 	 -6.262477 
H 	 -5.300437 	 -3.780894 	 -4.755069 
H 	 -5.056082 	 1.423654 	 6.418655 
H 	 -5.331739 	 1.910243 	 -7.032500 
H 	 6.214605 	 -7.231917 	 -3.273948 
H 	 7.066033 	 6.526850 	 -4.020235 
H 	 -5.411300 	 0.764198 	 -1.150878 
H 	 -6.145300 	 2.188102 	 -1.128449 
H 	 -6.831575 	 6.236422 	 -6.999028 
H 	 -7.128282 	 5.303339 	 6.804673 
H 	 -4.281094 	 -1.891180 	 -5.351151 
H 	 -3.973732 	 -1.084635 	 -4.132475 
H 	 -3.576304 	 3.304868 	 2.617213 
H 	 -5.044640 	 3.670687 	 2.463122 
H 	 6.517811 	 3.031290 	 4.289540 
H 	 5.917655 	 4.347903 	 4.471424 
H 	 -2.835465 	 2.841656 	 6.616291 
H 	 -2.470698 	 2.906794 	 5.097860 
H 	 2.467387 	 3.964174 	 7.321085 
H 	 3.958726 	 3.458627 	 -7.463851 
H 	 2.692533 	 0.658676 	 -0.869615 
H 	 2.790060 	 0.287776 	 -2.351408 
H 	 6.909465 	 -0.714884 	 -4.065380 
H 	 6.175395 	 -2.025212 	 -4.171227 
H 	 1.504493 	 -4.207914 	 -6.277294 
H 	 2.781029 	 -4.261593 	 -5.205636 
H 	 6.404773 	 1.490114 	 -0.078234 
H 	 7.091332 	 0.128332 	 0.117183 
H 	 -2.565020 	 -3.013582 	 0.409375 
H 	 -1.936007 	 -3.939604 	 1.452731 
H 	 -5.715587 	 7.399763 	 -4.248818 
H 	 -6.233851 	 -7.119361 	 -5.644433 
H 	 2.627744 	 -1.874426 	 -2.712957 
H 	 1.761130 	 -1.379257 	 -3.852771 
H 	 4.626815 	 5.215107 	 6.231408 
H 	 3.528655 	 5.977267 	 5.545592 
H 	 -3.743332 	 -5.412635 	 -4.745153 
H 	 -2.424239 	 -6.050949 	 -5.479577 
H 	 -1.236835 	 -3.633802 	 -3.823230 
H 	 -2.454460 	 -3.731772 	 -4.840287 
H 	 2.488189 	 1.947924 	 5.117216 
H 	 1.199648 	 1.449184 	 3.597894 
H 	 -2.773749 	 -1.181322 	 4.707691 
H 	 -2.936291 	 -0.102944 	 3.779826 
H 	 -0.431509 	 6.469789 	 2.505576 
H 	 -1.890649 	 6.360089 	 3.047499 
H 	 5.363091 	 -4.458342 	 -5.331090 
H 	 4.672942 	 -3.128431 	 -5.551354 
H 	 6.596266 	 0.703837 	 5.617719 
H 	 -7.012693 	 1.462293 	 6.183838 
H 	 4.963269 	 -2.404273 	 4.916158 
H 	 3.913717 	 -3.403137 	 5.179353 
H 	 3.135945 	 2.365582 	 -4.508616 
H 	 2.830919 	 3.521749 	 -5.507618 
H 	 7.294021 	 -5.150355 	 -1.924918 
H 	 6.050988 	 -5.930312 	 -1.361635 
H 	 -4.574498 	 5.225699 	 -7.452650 
H 	 -3.091253 	 4.829760 	 -7.143636 
H 	 5.299388 	 -6.954031 	 7.366036 
H 	 5.519197 	 -5.887603 	 6.237272 
H 	 4.812419 	 5.555926 	 -6.292901 
H 	 5.413655 	 6.708959 	 -5.444077 
H 	 3.967448 	 0.504639 	 -6.001852 
H 	 3.455092 	 -0.163194 	 -4.695739 
H 	 0.936179 	 -3.452181 	 1.515272 
H 	 1.525761 	 -4.787612 	 1.022253 
H 	 4.858880 	 -0.754336 	 -0.050609 
H 	 3.937628 	 -1.508981 	 1.028571 
H 	 -6.267851 	 -5.896393 	 7.215940 
H 	 -7.575020 	 -5.461464 	 -7.120491 
H 	 0.326218 	 -2.617344 	 -6.341641 
H 	 0.746802 	 -2.617124 	 7.044679 
H 	 -0.586632 	 -6.326961 	 -6.970631 
H 	 -0.392541 	 7.327599 	 -6.030870 
H 	 0.512106 	 0.186282 	 1.177735 
H 	 1.936525 	 0.193786 	 1.907135 
H 	 2.330479 	 -6.481644 	 1.945680 
H 	 1.684570 	 -7.332816 	 0.913605 
H 	 -3.025878 	 0.164769 	 1.106465 
H 	 -4.209538 	 1.110848 	 1.181002 
H 	 -4.234391 	 -6.062363 	 -6.950785 
H 	 -3.271117 	 -7.171512 	 -7.445061 
H 	 0.311548 	 3.598152 	 5.524191 
H 	 0.870256 	 5.085689 	 5.828647 
H 	 -1.325634 	 -5.803621 	 3.458207 
H 	 -0.632503 	 -4.452192 	 3.808349 
H 	 -6.612782 	 -3.124920 	 -3.243913 
H 	 -5.219789 	 -3.329461 	 -2.481668 
H 	 -0.985431 	 2.054077 	 -3.649395 
H 	 -2.305092 	 1.690211 	 -2.876584 
H 	 4.882415 	 5.331144 	 -1.239958 
H 	 4.649356 	 5.713364 	 0.215485 
H 	 -0.501287 	 2.773272 	 -0.008587 
H 	 -1.515425 	 3.012718 	 1.131883 
H 	 -0.320138 	 5.441410 	 -0.067667 
H 	 -1.599911 	 5.089224 	 -0.701197 
H 	 6.082062 	 0.715053 	 3.069930 
H 	 5.146066 	 1.805096 	 2.468429 
H 	 6.735489 	 3.037759 	 6.824296 
H 	 6.483901 	 3.799437 	 -6.703428 
H 	 -4.209423 	 -3.299035 	 2.098303 
H 	 -4.787649 	 -4.503643 	 3.069698 
H 	 2.153229 	 5.245794 	 1.894424 
H 	 1.964366 	 4.471607 	 0.476577 
H 	 0.380106 	 -0.693176 	 5.872561 
H 	 1.629418 	 -1.372777 	 5.246642 
H 	 -5.630055 	 0.592730 	 -4.685371 
H 	 -6.638574 	 1.247667 	 -3.670660 
H 	 -1.195538 	 -0.481028 	 0.080757 
H 	 -1.221956 	 -1.302831 	 1.373364 
H 	 -0.466752 	 7.131120 	 -3.116057 
H 	 0.075480 	 7.245795 	 -1.784240 
H 	 -3.954480 	 2.313416 	 -1.775465 
H 	 -2.640796 	 2.741431 	 -1.213865 
H 	 -6.032493 	 -0.073793 	 3.278539 
H 	 -6.883635 	 -1.230043 	 2.573831 
H 	 4.288358 	 -5.110166 	 -0.869550 
H 	 4.152299 	 -6.738923 	 -0.809900 
H 	 7.225081 	 -1.354974 	 5.833982 
H 	 7.040096 	 -1.182231 	 4.355584 
H 	 -7.220511 	 -4.368643 	 4.500648 
H 	 -7.261334 	 -5.833807 	 5.101258 
H 	 -6.029965 	 -0.721892 	 -7.272044 
H 	 -6.874650 	 -1.457462 	 -6.306746 
H 	 3.149702 	 4.244862 	 4.186563 
H 	 1.817746 	 3.613593 	 3.718326 
H 	 5.926292 	 -3.424398 	 3.088367 
H 	 7.046374 	 -3.569159 	 2.066988 
H 	 6.336798 	 3.565813 	 -1.380901 
H 	 7.088285 	 3.836323 	 -0.005700 
H 	 -0.273183 	 4.948885 	 -4.305143 
H 	 -1.663023 	 5.697572 	 -4.098871 
H 	 -4.336148 	 -2.629821 	 5.551238 
H 	 -4.707250 	 -2.574897 	 4.060616 
H 	 -7.574592 	 4.590175 	 2.436413 
H 	 -6.877096 	 5.522527 	 1.568910 
H 	 4.508363 	 -5.306792 	 1.865318 
H 	 3.722888 	 -4.850958 	 3.299054 
H 	 -7.350674 	 -3.910303 	 -0.231233 
H 	 6.433360 	 -3.001195 	 -0.877916 
H 	 4.096158 	 -0.234046 	 2.960822 
H 	 3.478215 	 -1.625447 	 3.273253 
H 	 -0.830247 	 -1.560127 	 -4.497729 
H 	 -0.076515 	 -0.317729 	 -5.217562 
H 	 0.839863 	 -3.252452 	 -2.051432 
H 	 1.318607 	 -2.820320 	 -0.611178 
H 	 0.347449 	 3.795573 	 -2.056594 
H 	 1.415529 	 3.494384 	 -3.200478 
H 	 -0.153460 	 -6.213610 	 0.912749 
H 	 -0.367186 	 -6.101403 	 -0.539337 
H 	 1.487463 	 2.188001 	 0.331569 
H 	 2.021535 	 2.515305 	 -1.035691 
H 	 -1.155728 	 -2.095864 	 3.207191 
H 	 -0.031897 	 -2.155227 	 4.274179 
H 	 3.956722 	 1.434288 	 5.010420 
H 	 0.172410 	 1.220617 	 -7.171394 
H 	 -3.024534 	 -6.384815 	 -0.399287 
H 	 -3.785867 	 7.215056 	 -0.068105 
H 	 -6.933453 	 -5.788889 	 1.472818 
H 	 6.891007 	 -6.335148 	 0.596846 
H 	 6.188125 	 0.512091 	 -2.363893 
H 	 5.323274 	 0.835351 	 -3.640102 
H 	 1.899158 	 7.302552 	 6.341875 
H 	 1.733689 	 -7.374903 	 4.845008 
H 	 1.091493 	 1.848283 	 -6.001235 
O 	 -4.645324 	 7.101361 	 4.846001 
O 	 7.139761 	 3.393007 	 -5.246145 
O 	 -3.013872 	 6.280162 	 -3.140213 
O 	 -6.590683 	 7.240619 	 2.956274 
O 	 -3.682515 	 5.353429 	 -0.228703 
O 	 -5.677025 	 4.751369 	 -2.200120 
O 	 -1.319912 	 3.194686 	 3.250450 
O 	 -3.714091 	 -1.452367 	 -2.269409 
O 	 -1.459531 	 4.462716 	 -6.915823 
O 	 -2.383126 	 -3.979781 	 -1.256657 
O 	 5.857094 	 -6.888816 	 4.283025 
O 	 -1.020128 	 -0.685821 	 -1.571257 
O 	 4.556062 	 -3.482883 	 -1.489362 
O 	 -5.617609 	 -1.074522 	 -0.089020 
O 	 2.391543 	 7.291531 	 -6.383982 
O 	 -5.687801 	 7.430441 	 -2.077366 
O 	 5.127262 	 4.417720 	 -2.885293 
O 	 -3.173076 	 1.551289 	 -6.076261 
O 	 -0.343239 	 0.754263 	 6.016380 
O 	 2.897960 	 -0.143748 	 7.288304 
O 	 0.269540 	 -5.552735 	 6.373180 
O 	 4.146165 	 -2.839359 	 7.295260 
O 	 -5.385223 	 4.193210 	 4.493378 
O 	 -3.025214 	 -6.546469 	 2.828684 
O 	 4.061942 	 3.006772 	 1.444943 
O 	 3.111336 	 -6.945112 	 -2.637903 
O 	 0.354100 	 -4.441238 	 -3.267862 
O 	 2.984756 	 -5.257556 	 5.673479 
O 	 -4.651488 	 -3.875231 	 -5.541710 
O 	 -5.570313 	 1.238340 	 7.205136 
O 	 6.167974 	 6.767239 	 -3.744210 
O 	 -5.269283 	 1.723368 	 -1.013655 
O 	 -6.484139 	 6.026145 	 7.017821 
O 	 -4.339065 	 -0.984203 	 -5.000088 
O 	 -4.252325 	 3.320852 	 1.947571 
O 	 6.675808 	 3.914561 	 4.061036 
O 	 -3.232110 	 2.665214 	 5.696121 
O 	 3.269883 	 3.975132 	 -7.014551 
O 	 3.110835 	 0.973078 	 -1.673077 
O 	 7.115972 	 -1.692156 	 -4.205351 
O 	 1.972494 	 -4.703077 	 -5.513027 
O 	 6.282190 	 0.519414 	 -0.176618 
O 	 -2.372678 	 -3.105963 	 1.329335 
O 	 -6.161816 	 7.000239 	 -5.032962 
O 	 2.683042 	 -1.251570 	 -3.494845 
O 	 4.373930 	 5.445971 	 5.354242 
O 	 -2.908887 	 -5.877990 	 -4.664880 
O 	 -1.907787 	 -3.129486 	 -4.323211 
O 	 1.016183 	 2.029916 	 4.356770 
O 	 -2.212953 	 -0.610483 	 4.148191 
O 	 -1.168573 	 5.842743 	 2.627655 
O 	 4.787982 	 -3.783833 	 -4.813957 
O 	 6.990400 	 1.556769 	 5.704772 
O 	 4.293855 	 -2.878117 	 4.424440 
O 	 2.850552 	 3.307180 	 -4.516423 
O 	 6.706915 	 -5.869209 	 -2.067707 
O 	 -4.059040 	 4.714511 	 -6.869131 
O 	 5.273287 	 -5.994447 	 7.181667 
O 	 5.073327 	 6.476891 	 -6.317856 
O 	 3.912415 	 0.643182 	 -5.036303 
O 	 1.624093 	 -3.830289 	 0.947977 
O 	 4.172597 	 -1.456639 	 0.096584 
O 	 -6.627223 	 -5.562368 	 -6.845617 
O 	 0.508818 	 -3.194889 	 -7.080870 
O 	 -1.080010 	 -6.983584 	 -6.472860 
O 	 1.294482 	 0.754816 	 1.419413 
O 	 1.456622 	 -6.886482 	 1.734080 
O 	 -3.920716 	 0.212420 	 1.501689 
O 	 -3.893352 	 -6.493892 	 7.111424 
O 	 0.509658 	 4.265723 	 6.218464 
O 	 -0.448244 	 -5.437353 	 3.807330 
O 	 -5.847625 	 -3.771704 	 -3.139867 
O 	 -1.642312 	 1.329810 	 -3.594977 
O 	 4.969906 	 6.103391 	 -0.632462 
O 	 -1.403834 	 3.080828 	 0.133373 
O 	 -0.893144 	 5.783681 	 -0.780530 
O 	 5.210349 	 1.114181 	 3.178052 
O 	 6.263952 	 3.851447 	 7.201183 
O 	 -4.945276 	 -3.619687 	 2.612048 
O 	 2.108522 	 5.383646 	 0.889887 
O 	 0.734941 	 -1.584095 	 5.599705 
O 	 -6.092396 	 1.429171 	 -4.433495 
O 	 -1.193877 	 -0.344152 	 1.109336 
O 	 -0.147710 	 -7.068902 	 -2.532843 
O 	 -3.126510 	 2.819713 	 -2.022999 
O 	 -6.914112 	 -0.273000 	 2.797920 
O 	 4.565328 	 -5.968415 	 -0.435974 
O 	 6.506736 	 -1.251399 	 5.171220 
O 	 -6.804244 	 -4.957881 	 5.184028 
O 	 -6.718806 	 -1.410950 	 -7.248902 
O 	 2.498914 	 4.285973 	 3.461437 
O 	 6.869364 	 -3.225664 	 2.972551 
O 	 7.077665 	 3.300435 	 -0.796108 
O 	 -0.786802 	 5.784338 	 -4.450807 
O 	 -4.456592 	 -1.939736 	 4.853424 
O 	 -7.221237 	 4.626203 	 1.495505 
O 	 4.090715 	 -5.597898 	 2.728101 
O 	 -7.555662 	 -3.004056 	 -0.523504 
O 	 3.411605 	 -0.883104 	 2.645559 
O 	 0.006079 	 -1.245164 	 -4.914869 
O 	 1.069519 	 -2.452209 	 -1.477421 
O 	 0.421098 	 3.602513 	 -3.007188 
O 	 -0.807864 	 -5.962544 	 0.283087 
O 	 1.486057 	 2.923332 	 -0.329306 
O 	 -0.476247 	 -2.712196 	 3.548710 
O 	 3.381719 	 1.893558 	 5.657319 
O 	 -3.911622 	 -6.691239 	 -0.118923 
O 	 -7.560869 	 -5.510957 	 0.785782 
O 	 6.259976 	 0.761411 	 -3.343743 
O 	 1.896880 	 6.799198 	 5.489005 
O 	 0.734245 	 1.029388 	 -6.344089 
K 	 -4.467838 	 3.808544 	 -4.508245 
