333
conformation = 55
H 	 -4.585596 	 6.245667 	 4.952816 
H 	 -4.446126 	 -7.377996 	 5.853728 
H 	 6.814354 	 3.287660 	 -4.308772 
H 	 -6.934506 	 2.699842 	 -5.146779 
H 	 -2.876198 	 6.177456 	 -2.443090 
H 	 -2.858227 	 7.360238 	 -3.557929 
H 	 -7.383578 	 7.387601 	 3.381613 
H 	 -5.881263 	 7.035696 	 3.567073 
H 	 -3.727522 	 4.944059 	 0.726544 
H 	 -4.215567 	 5.101488 	 -0.767490 
H 	 -6.262680 	 4.347119 	 -1.737843 
H 	 -5.645554 	 5.830488 	 -2.096193 
H 	 -0.351956 	 2.733642 	 3.794523 
H 	 -1.210913 	 4.009454 	 3.312907 
H 	 -4.037643 	 -1.128129 	 -1.405164 
H 	 -2.570744 	 -1.291383 	 -1.862599 
H 	 -0.636712 	 4.411131 	 7.430666 
H 	 -0.937653 	 4.856075 	 -5.951035 
H 	 -2.615066 	 -3.011760 	 -1.788904 
H 	 -1.432994 	 -3.904176 	 -1.687795 
H 	 5.465270 	 6.962254 	 4.648650 
H 	 5.383480 	 -6.558959 	 3.744402 
H 	 -0.025147 	 -1.196412 	 -1.734186 
H 	 -0.832610 	 0.068285 	 -2.222966 
H 	 4.530743 	 -3.349121 	 -2.390808 
H 	 4.422695 	 -2.685584 	 -0.948023 
H 	 -5.939092 	 -1.589711 	 0.141610 
H 	 -4.817929 	 -0.571238 	 0.625487 
H 	 3.368009 	 7.235560 	 -6.389584 
H 	 2.385511 	 -6.466996 	 -6.322385 
H 	 -6.404768 	 -6.871129 	 -1.553903 
H 	 -4.841736 	 -6.913837 	 -1.432922 
H 	 5.767012 	 5.165928 	 -3.182368 
H 	 4.458578 	 4.259577 	 -3.233385 
H 	 -2.130733 	 1.915172 	 -5.571848 
H 	 -2.943463 	 0.746170 	 -5.886869 
H 	 0.344585 	 1.335485 	 5.632604 
H 	 -1.070713 	 0.687030 	 5.917631 
H 	 2.491245 	 0.330480 	 -7.093910 
H 	 3.651226 	 0.526266 	 6.760067 
H 	 -0.079293 	 -5.593877 	 5.749215 
H 	 -0.144782 	 -4.903321 	 7.151981 
H 	 3.947320 	 -1.892148 	 7.526240 
H 	 3.648385 	 -3.398738 	 7.256040 
H 	 -4.765677 	 3.458528 	 5.202885 
H 	 -6.071201 	 4.152804 	 4.733579 
H 	 -3.332448 	 -6.339095 	 2.301281 
H 	 -3.422973 	 -6.934838 	 3.808074 
H 	 3.759846 	 2.629934 	 0.607137 
H 	 3.812610 	 3.411372 	 1.993127 
H 	 3.125494 	 7.075604 	 -2.029621 
H 	 2.228256 	 -6.788541 	 -2.824837 
H 	 1.279593 	 -4.376539 	 -3.873613 
H 	 0.308366 	 -5.190151 	 -2.877079 
H 	 3.743581 	 -5.703585 	 6.348893 
H 	 2.161782 	 -5.417164 	 6.210045 
H 	 -5.368858 	 -4.239308 	 -6.000632 
H 	 -4.938791 	 -4.039865 	 -4.526478 
H 	 -4.602621 	 1.224104 	 6.549127 
H 	 -5.165146 	 1.915389 	 -7.183801 
H 	 6.451347 	 -7.282399 	 -3.056613 
H 	 -7.473644 	 6.877538 	 -4.040560 
H 	 -5.419496 	 0.922138 	 -0.545881 
H 	 -5.790136 	 2.402986 	 -0.638801 
H 	 -6.430046 	 5.943153 	 -6.841341 
H 	 -7.270757 	 5.199813 	 6.980339 
H 	 -4.713795 	 -1.789178 	 -5.436013 
H 	 -3.999485 	 -1.379433 	 -4.109671 
H 	 -2.998484 	 3.198893 	 2.329235 
H 	 -4.366558 	 3.879390 	 2.694154 
H 	 6.958631 	 3.137693 	 4.752970 
H 	 6.124841 	 4.578242 	 4.557293 
H 	 -2.499576 	 2.514468 	 6.488604 
H 	 -2.503249 	 2.841737 	 4.946859 
H 	 2.700245 	 4.441069 	 -7.312300 
H 	 3.716372 	 3.360316 	 7.211424 
H 	 3.669869 	 0.350692 	 -1.057316 
H 	 2.978542 	 0.732256 	 -2.414862 
H 	 6.794668 	 -1.241843 	 -3.485497 
H 	 6.465243 	 -2.558508 	 -4.255108 
H 	 2.100585 	 -4.115995 	 -5.970583 
H 	 3.223113 	 -4.384428 	 -4.967992 
H 	 6.717069 	 1.301065 	 -0.188678 
H 	 -7.427917 	 -0.068560 	 0.087389 
H 	 -2.261700 	 -3.817675 	 0.580838 
H 	 -1.664057 	 -3.979066 	 1.961007 
H 	 -5.510220 	 7.328590 	 -3.930014 
H 	 -5.796210 	 -6.855745 	 -5.293028 
H 	 2.372362 	 -1.531797 	 -2.732608 
H 	 1.830912 	 -1.175698 	 -4.162603 
H 	 4.827403 	 4.833694 	 6.092386 
H 	 3.761328 	 5.975184 	 5.570664 
H 	 -3.200707 	 -5.430071 	 -5.203293 
H 	 -1.923370 	 -6.102872 	 -4.826370 
H 	 -1.087126 	 -3.797465 	 -3.988780 
H 	 -2.408501 	 -3.348574 	 -4.635567 
H 	 2.701183 	 1.909597 	 5.105888 
H 	 1.184404 	 1.590531 	 3.614985 
H 	 -2.877299 	 -0.676262 	 4.636516 
H 	 -2.026192 	 0.130963 	 3.605777 
H 	 -0.257317 	 6.538273 	 2.614797 
H 	 -1.749782 	 6.721399 	 2.519066 
H 	 5.654406 	 -4.417951 	 -4.701152 
H 	 5.132496 	 -3.482736 	 -5.783893 
H 	 6.845397 	 0.479726 	 5.608153 
H 	 -7.017638 	 1.468924 	 6.188182 
H 	 5.306225 	 -2.385746 	 5.037396 
H 	 4.260821 	 -3.584145 	 5.015480 
H 	 3.665463 	 2.435256 	 -4.471894 
H 	 3.199449 	 3.648522 	 -5.155715 
H 	 7.179613 	 -5.038053 	 -2.370358 
H 	 6.302091 	 -5.941802 	 -1.383621 
H 	 -4.612295 	 5.402962 	 -7.329545 
H 	 -3.067993 	 4.834669 	 -7.021397 
H 	 5.426275 	 -6.801277 	 -7.132494 
H 	 5.727379 	 -6.078626 	 6.433370 
H 	 5.363657 	 5.615975 	 -6.533463 
H 	 5.572211 	 6.663011 	 -5.355069 
H 	 4.029966 	 0.379861 	 -5.835415 
H 	 3.775705 	 0.162262 	 -4.313707 
H 	 1.382316 	 -3.231644 	 1.908652 
H 	 1.190651 	 -4.389433 	 1.090110 
H 	 5.147291 	 -0.816599 	 0.182729 
H 	 4.100916 	 -1.442542 	 1.121603 
H 	 -6.529521 	 -5.298711 	 7.343241 
H 	 -7.476309 	 -5.498308 	 -6.438641 
H 	 0.249254 	 -2.475932 	 -6.166398 
H 	 0.562758 	 -2.482959 	 7.117902 
H 	 -0.305562 	 -6.892090 	 -6.921227 
H 	 -0.357414 	 7.156868 	 -5.629870 
H 	 0.639481 	 0.397729 	 1.566558 
H 	 2.098447 	 -0.051726 	 1.871139 
H 	 2.248797 	 -6.418620 	 2.326201 
H 	 1.972296 	 7.063308 	 1.510462 
H 	 -2.912578 	 0.286872 	 1.351195 
H 	 -3.980657 	 1.464999 	 1.487203 
H 	 -4.023159 	 -5.958645 	 -6.890562 
H 	 -2.819255 	 -6.843034 	 -7.224021 
H 	 1.146153 	 3.590667 	 5.616998 
H 	 1.052285 	 5.054414 	 5.682261 
H 	 -1.061696 	 -5.740203 	 3.552708 
H 	 -0.280227 	 -4.420396 	 3.844523 
H 	 -6.337696 	 -2.946246 	 -3.325068 
H 	 -5.107934 	 -3.451055 	 -2.467398 
H 	 -0.429113 	 1.767306 	 -3.330516 
H 	 -1.889707 	 1.847354 	 -2.783929 
H 	 4.966113 	 5.481766 	 -1.131533 
H 	 4.464695 	 5.975610 	 0.280856 
H 	 -0.297493 	 3.089848 	 -0.013613 
H 	 -1.259600 	 3.238000 	 1.209651 
H 	 -0.218140 	 5.812128 	 0.146971 
H 	 -1.690404 	 5.702537 	 -0.426691 
H 	 6.353244 	 0.846125 	 2.946995 
H 	 5.118270 	 1.612684 	 2.357166 
H 	 6.477602 	 3.194845 	 6.836680 
H 	 6.584062 	 3.679897 	 -6.607937 
H 	 -4.033260 	 -3.706811 	 2.430950 
H 	 -5.012610 	 -4.362029 	 3.331332 
H 	 2.276212 	 4.926475 	 1.695935 
H 	 1.918589 	 4.960925 	 0.206705 
H 	 0.491060 	 -0.692654 	 5.893831 
H 	 1.960555 	 -1.265481 	 5.871853 
H 	 -5.323639 	 0.462791 	 -4.703847 
H 	 -6.594191 	 0.948448 	 -4.013619 
H 	 -0.960769 	 -0.200799 	 0.046206 
H 	 -1.221752 	 -1.323348 	 1.161106 
H 	 0.173473 	 7.413293 	 -3.314206 
H 	 -0.584280 	 7.133505 	 -1.936953 
H 	 -3.616567 	 2.558888 	 -1.392409 
H 	 -2.133489 	 3.307560 	 -1.365816 
H 	 -5.815707 	 0.082159 	 2.529681 
H 	 -6.796556 	 -1.071063 	 2.744201 
H 	 4.567719 	 -4.919085 	 -0.670938 
H 	 4.255810 	 -6.418757 	 -0.631281 
H 	 7.152164 	 -1.527036 	 6.315207 
H 	 -7.312309 	 -1.040867 	 4.777338 
H 	 -7.095550 	 -3.941388 	 4.668787 
H 	 -6.917684 	 -5.408429 	 4.615779 
H 	 -6.319178 	 -0.512169 	 -7.223164 
H 	 -7.309893 	 -1.549006 	 -6.428147 
H 	 3.341763 	 4.562806 	 4.200361 
H 	 2.323236 	 3.368230 	 3.870907 
H 	 5.926337 	 -2.823374 	 3.386540 
H 	 7.006135 	 -3.671426 	 2.670423 
H 	 6.660548 	 3.690841 	 -1.158313 
H 	 -7.479527 	 4.028989 	 0.136924 
H 	 -0.116591 	 5.062285 	 -3.844012 
H 	 -1.236170 	 5.957262 	 -4.197376 
H 	 -4.518047 	 -2.558124 	 5.702148 
H 	 -4.427139 	 -2.352269 	 4.191379 
H 	 7.383481 	 4.168008 	 2.203019 
H 	 -6.906773 	 5.656387 	 1.954635 
H 	 4.130581 	 -5.540162 	 1.702181 
H 	 4.061126 	 -4.591348 	 2.816991 
H 	 -7.279704 	 -3.752880 	 0.097754 
H 	 6.706212 	 -2.893776 	 -0.802417 
H 	 4.279454 	 -0.290417 	 2.925161 
H 	 3.868025 	 -1.699392 	 3.408565 
H 	 -0.730457 	 -1.675398 	 -4.499382 
H 	 -0.099759 	 -0.367401 	 -5.222282 
H 	 1.099875 	 -3.215182 	 -1.852977 
H 	 1.486163 	 -2.794300 	 -0.385143 
H 	 0.585425 	 4.130117 	 -1.890782 
H 	 1.407639 	 3.520107 	 -3.120528 
H 	 0.207337 	 -6.433349 	 1.144808 
H 	 -0.339051 	 -5.901670 	 -0.296242 
H 	 1.477941 	 2.128081 	 0.501818 
H 	 1.992708 	 2.262176 	 -0.873908 
H 	 -0.970697 	 -2.255582 	 3.688994 
H 	 0.353764 	 -2.542493 	 4.344553 
H 	 4.273581 	 2.020121 	 4.673880 
H 	 0.325991 	 1.145543 	 -6.980071 
H 	 -2.869896 	 -6.124746 	 -0.096223 
H 	 -3.376304 	 7.245627 	 -0.062572 
H 	 -7.099306 	 -6.490337 	 1.451922 
H 	 6.630842 	 -5.801481 	 0.616289 
H 	 5.760822 	 0.893527 	 -2.566006 
H 	 5.809505 	 0.877712 	 -4.138292 
H 	 2.080585 	 7.207823 	 6.479800 
H 	 2.169975 	 -7.189130 	 4.885244 
H 	 0.751887 	 2.084140 	 -5.780140 
O 	 -4.481118 	 7.225485 	 4.921810 
O 	 7.390154 	 3.537120 	 -5.041483 
O 	 -2.694384 	 6.398196 	 -3.392220 
O 	 -6.572263 	 7.200557 	 2.860950 
O 	 -3.618016 	 5.525108 	 -0.074599 
O 	 -5.531317 	 4.845208 	 -2.121622 
O 	 -1.258011 	 3.022586 	 3.407238 
O 	 -3.515718 	 -1.516906 	 -2.155028 
O 	 -1.343064 	 4.488252 	 -6.824705 
O 	 -2.301245 	 -3.788532 	 -1.292672 
O 	 5.928105 	 -7.090150 	 4.385645 
O 	 -0.851171 	 -0.684899 	 -1.553076 
O 	 4.863125 	 -3.430634 	 -1.469703 
O 	 -5.425638 	 -0.774642 	 -0.146758 
O 	 2.408026 	 -7.408570 	 -6.543812 
O 	 -5.598404 	 -7.306598 	 -1.957904 
O 	 5.322505 	 4.382694 	 -2.706207 
O 	 -2.928347 	 1.701653 	 -6.079120 
O 	 -0.163290 	 0.729926 	 6.310952 
O 	 3.330125 	 -0.089456 	 7.469915 
O 	 0.265519 	 -5.655523 	 6.683789 
O 	 4.296726 	 -2.786539 	 -7.288459 
O 	 -5.109976 	 4.237650 	 4.654574 
O 	 -2.801195 	 -6.604184 	 3.062173 
O 	 4.374152 	 3.013226 	 1.285136 
O 	 3.154481 	 -6.979950 	 -2.563382 
O 	 0.549232 	 -4.333736 	 -3.229782 
O 	 3.046633 	 -5.354151 	 5.763589 
O 	 -4.553734 	 -4.026595 	 -5.466752 
O 	 -5.488194 	 1.355059 	 6.997503 
O 	 6.504920 	 6.826743 	 -3.651699 
O 	 -5.105472 	 1.775822 	 -0.881068 
O 	 -6.609343 	 5.913900 	 7.093502 
O 	 -4.264414 	 -1.010303 	 -5.023830 
O 	 -3.889138 	 3.487223 	 1.969543 
O 	 6.859786 	 4.012158 	 4.184196 
O 	 -3.038189 	 2.768352 	 5.753845 
O 	 3.633312 	 4.180295 	 -7.141475 
O 	 3.166860 	 1.069530 	 -1.550918 
O 	 7.141944 	 -1.882795 	 -4.129409 
O 	 2.384730 	 -4.804862 	 -5.300695 
O 	 6.535928 	 0.332763 	 -0.058022 
O 	 -2.212188 	 -3.319876 	 1.445635 
O 	 -5.918963 	 7.204816 	 -4.811756 
O 	 2.630633 	 -1.120135 	 -3.555503 
O 	 4.577264 	 5.440603 	 5.309425 
O 	 -2.758361 	 -5.776042 	 -4.404416 
O 	 -1.624236 	 -3.020973 	 -4.186764 
O 	 1.105309 	 2.059933 	 4.475923 
O 	 -1.972936 	 -0.561437 	 4.309382 
O 	 -1.076804 	 6.010282 	 2.617105 
O 	 5.033357 	 -3.726745 	 -4.814381 
O 	 7.021875 	 1.498486 	 5.764089 
O 	 4.592250 	 -2.830187 	 4.530150 
O 	 3.136960 	 3.232319 	 -4.320062 
O 	 7.024006 	 -5.965004 	 -2.037212 
O 	 -3.992455 	 4.926661 	 -6.670135 
O 	 5.242039 	 -5.968862 	 7.279482 
O 	 5.234813 	 6.573043 	 -6.277458 
O 	 4.232019 	 0.762423 	 -4.911289 
O 	 1.878443 	 -3.667316 	 1.145177 
O 	 4.314715 	 -1.379300 	 0.158435 
O 	 -6.513655 	 -5.628775 	 -6.624397 
O 	 0.677250 	 -2.999047 	 -6.934451 
O 	 -0.853279 	 -7.098285 	 -6.106488 
O 	 1.553130 	 0.701132 	 1.543108 
O 	 1.628336 	 -6.919728 	 1.762280 
O 	 -3.833999 	 0.531384 	 1.688664 
O 	 -3.650547 	 -6.504186 	 7.305540 
O 	 0.872782 	 4.269022 	 6.251547 
O 	 -0.185228 	 -5.439880 	 3.824424 
O 	 -5.790072 	 -3.732102 	 -3.103100 
O 	 -1.296788 	 1.311635 	 -3.430541 
O 	 4.975109 	 6.235290 	 -0.526929 
O 	 -1.244738 	 3.191487 	 0.255131 
O 	 -0.746670 	 5.749171 	 -0.673521 
O 	 5.396418 	 1.045317 	 3.105704 
O 	 6.449120 	 3.995270 	 7.376479 
O 	 -4.966741 	 -3.568950 	 2.778761 
O 	 2.179519 	 5.497878 	 0.945134 
O 	 1.041418 	 -1.475957 	 5.654184 
O 	 -5.867553 	 1.276916 	 -4.628317 
O 	 -1.169537 	 -0.358797 	 1.047272 
O 	 0.019269 	 -7.143699 	 -2.409058 
O 	 -2.863199 	 2.892628 	 -1.944127 
O 	 -6.609932 	 -0.137568 	 2.966285 
O 	 4.864802 	 -5.769538 	 -0.166244 
O 	 6.866230 	 -1.197133 	 5.427277 
O 	 -6.800820 	 -4.674157 	 5.227148 
O 	 -6.667785 	 -1.435313 	 -7.187461 
O 	 2.707027 	 4.216524 	 3.508605 
O 	 6.893347 	 -2.862054 	 3.178466 
O 	 7.393919 	 3.383198 	 -0.589415 
O 	 -0.343330 	 5.673853 	 -4.559844 
O 	 -4.246701 	 -1.942050 	 5.033078 
O 	 -7.152198 	 4.760123 	 1.568705 
O 	 4.084296 	 -5.533091 	 2.671855 
O 	 -7.308907 	 -2.878336 	 -0.365690 
O 	 3.639216 	 -1.013043 	 2.731821 
O 	 0.082879 	 -1.271083 	 -4.839418 
O 	 1.406873 	 -2.440259 	 -1.334896 
O 	 0.541653 	 3.673818 	 -2.757569 
O 	 -0.600212 	 -6.013157 	 0.640532 
O 	 1.597565 	 2.821178 	 -0.156455 
O 	 -0.162596 	 -2.779464 	 3.562681 
O 	 3.665085 	 1.994091 	 5.459459 
O 	 -3.669693 	 -6.701051 	 -0.063232 
O 	 -7.356153 	 -5.629040 	 1.024614 
O 	 6.385227 	 0.799767 	 -3.278560 
O 	 2.182385 	 6.942324 	 5.500371 
O 	 0.724657 	 1.125567 	 -6.066200 
K 	 -4.343442 	 3.792597 	 -4.425099 
