333
conformation = 68
H 	 -4.503417 	 6.282246 	 4.880970 
H 	 -4.180438 	 -7.298538 	 5.785868 
H 	 6.904433 	 3.469614 	 -4.260427 
H 	 -6.977911 	 2.686654 	 -5.068148 
H 	 -2.910012 	 6.277860 	 -2.552657 
H 	 -2.774805 	 7.401687 	 -3.646120 
H 	 7.452241 	 7.273334 	 3.238331 
H 	 -5.954141 	 7.133522 	 3.623966 
H 	 -3.672485 	 4.950792 	 0.693216 
H 	 -4.256052 	 5.362015 	 -0.734875 
H 	 -6.181450 	 4.506163 	 -1.569934 
H 	 -5.672671 	 5.851248 	 -2.015045 
H 	 -0.231478 	 2.801260 	 3.672433 
H 	 -1.208156 	 4.033925 	 3.332495 
H 	 -3.999391 	 -0.965897 	 -1.555999 
H 	 -2.501612 	 -1.146282 	 -2.016253 
H 	 -0.529219 	 4.329895 	 7.451364 
H 	 -0.711907 	 4.647299 	 -5.995159 
H 	 -2.741378 	 -3.011166 	 -1.712059 
H 	 -1.423569 	 -3.807986 	 -1.855500 
H 	 5.614055 	 6.920340 	 4.583714 
H 	 5.363178 	 -6.709333 	 3.728919 
H 	 0.018126 	 -1.204888 	 -1.773241 
H 	 -0.805475 	 0.028637 	 -2.299351 
H 	 4.606495 	 -3.340035 	 -2.418401 
H 	 4.478591 	 -2.675298 	 -0.926070 
H 	 -5.739982 	 -1.567718 	 -0.227391 
H 	 -4.877398 	 -0.508251 	 0.677819 
H 	 3.362607 	 7.287755 	 -6.331008 
H 	 2.396204 	 -6.375680 	 -6.449085 
H 	 -6.381083 	 -6.884401 	 -1.587649 
H 	 -4.814642 	 -7.010191 	 -1.284562 
H 	 5.975232 	 5.145992 	 -3.088029 
H 	 4.596829 	 4.222342 	 -3.188248 
H 	 -1.991295 	 2.092276 	 -5.686893 
H 	 -2.994901 	 0.844424 	 -5.794359 
H 	 0.464411 	 1.308650 	 5.644507 
H 	 -1.005634 	 0.760134 	 5.887298 
H 	 2.643935 	 0.406885 	 -7.094554 
H 	 3.849702 	 0.650555 	 6.809337 
H 	 0.020618 	 -5.595810 	 5.783231 
H 	 -0.088774 	 -4.949429 	 7.238000 
H 	 4.092509 	 -1.803350 	 -7.244019 
H 	 3.649882 	 -3.218630 	 7.194701 
H 	 -4.516024 	 3.570847 	 5.223685 
H 	 -5.961639 	 4.315748 	 4.709499 
H 	 -3.217430 	 -6.089402 	 2.426169 
H 	 -3.398730 	 -6.920513 	 3.740242 
H 	 3.757186 	 2.554997 	 0.764641 
H 	 4.041583 	 3.436103 	 2.032175 
H 	 3.241170 	 7.169594 	 -1.980740 
H 	 2.241446 	 -6.795255 	 -2.552375 
H 	 1.304874 	 -4.583033 	 -3.909397 
H 	 0.421807 	 -5.139046 	 -2.849073 
H 	 3.767736 	 -5.791563 	 6.228153 
H 	 2.345065 	 -5.432622 	 6.356622 
H 	 -5.272107 	 -4.407522 	 -5.962183 
H 	 -4.825640 	 -3.947335 	 -4.510248 
H 	 -4.587733 	 1.293135 	 6.355200 
H 	 -5.086008 	 1.886426 	 -7.160007 
H 	 6.550492 	 -7.232370 	 -3.086304 
H 	 -7.392102 	 6.881125 	 -4.086462 
H 	 -5.373203 	 0.984625 	 -0.558689 
H 	 -5.724208 	 2.477051 	 -0.737695 
H 	 -6.441752 	 6.084539 	 -6.844365 
H 	 -7.270370 	 5.247071 	 7.131631 
H 	 -4.545901 	 -1.796206 	 -5.450683 
H 	 -3.895291 	 -1.210609 	 -4.156129 
H 	 -2.883875 	 3.333311 	 2.409439 
H 	 -4.234712 	 3.967728 	 2.672592 
H 	 6.924843 	 3.172494 	 4.700595 
H 	 6.329251 	 4.625312 	 4.681192 
H 	 -2.382291 	 2.759343 	 6.494887 
H 	 -2.339875 	 2.647591 	 5.000008 
H 	 2.823347 	 4.645764 	 -7.337103 
H 	 3.766014 	 3.469535 	 7.095725 
H 	 3.795524 	 0.402327 	 -1.188118 
H 	 2.999053 	 0.830109 	 -2.424273 
H 	 6.729548 	 -1.351334 	 -3.492080 
H 	 6.603638 	 -2.658446 	 -4.188371 
H 	 2.035092 	 -4.261948 	 -5.983236 
H 	 3.338024 	 -4.277958 	 -5.019036 
H 	 6.750747 	 1.320785 	 -0.267057 
H 	 -7.310909 	 -0.036963 	 -0.072464 
H 	 -2.280950 	 -3.783952 	 0.605440 
H 	 -1.405544 	 -3.754799 	 1.982402 
H 	 -5.450683 	 7.419239 	 -3.857341 
H 	 -5.551686 	 -6.786483 	 -5.204230 
H 	 2.343185 	 -1.530564 	 -2.807454 
H 	 1.839704 	 -1.152873 	 -4.219789 
H 	 4.793914 	 4.897478 	 6.068236 
H 	 3.916282 	 6.038505 	 5.653162 
H 	 -3.143618 	 -5.457668 	 -5.133924 
H 	 -1.806414 	 -6.057104 	 -4.630974 
H 	 -1.039719 	 -3.696009 	 -3.879810 
H 	 -2.323043 	 -3.197768 	 -4.708546 
H 	 2.850245 	 1.997818 	 5.059897 
H 	 1.342920 	 1.434513 	 3.782367 
H 	 -2.707998 	 -0.435501 	 4.722221 
H 	 -1.911786 	 0.159749 	 3.581978 
H 	 -0.118671 	 6.482565 	 2.736235 
H 	 -1.613471 	 6.837908 	 2.678059 
H 	 5.784363 	 -4.355445 	 -4.676159 
H 	 5.108464 	 -3.580462 	 -5.835418 
H 	 6.925314 	 0.563452 	 5.630712 
H 	 -6.929919 	 1.733266 	 5.896319 
H 	 5.314374 	 -2.403451 	 5.148968 
H 	 4.455258 	 -3.588261 	 4.987223 
H 	 3.770436 	 2.444943 	 -4.402082 
H 	 3.200249 	 3.556757 	 -5.179186 
H 	 7.279376 	 -4.999002 	 -2.431625 
H 	 6.510850 	 -5.808310 	 -1.361056 
H 	 -4.533769 	 5.303891 	 7.429404 
H 	 -3.044508 	 5.128026 	 -7.033404 
H 	 5.393027 	 -6.725221 	 -7.071868 
H 	 5.765738 	 -6.213711 	 6.476058 
H 	 5.778605 	 5.846717 	 -6.660415 
H 	 5.712031 	 6.726039 	 -5.402620 
H 	 4.255039 	 0.492145 	 -5.844205 
H 	 3.875541 	 0.150621 	 -4.392375 
H 	 1.526448 	 -3.002140 	 1.853272 
H 	 1.322037 	 -4.310973 	 0.997406 
H 	 5.333498 	 -0.906228 	 0.117556 
H 	 4.108968 	 -1.424286 	 1.050409 
H 	 -6.438786 	 -5.172917 	 7.370700 
H 	 7.476944 	 -5.495487 	 -6.400827 
H 	 0.585214 	 -2.285485 	 -6.195976 
H 	 0.798278 	 -2.339021 	 7.179547 
H 	 -0.292529 	 -6.593967 	 -6.772112 
H 	 -0.260557 	 7.019825 	 -5.849213 
H 	 0.722959 	 0.387645 	 1.535116 
H 	 2.185870 	 0.098786 	 2.079881 
H 	 2.324013 	 -6.428839 	 2.357128 
H 	 2.216922 	 7.177253 	 1.494603 
H 	 -2.923765 	 0.430380 	 1.263759 
H 	 -3.886770 	 1.560731 	 1.438660 
H 	 -4.030127 	 -5.976879 	 -6.917219 
H 	 -2.668004 	 -6.698334 	 -7.182826 
H 	 1.296704 	 3.608377 	 5.632523 
H 	 1.185288 	 5.178117 	 5.802233 
H 	 -0.986763 	 -5.671776 	 3.537527 
H 	 -0.163272 	 -4.427193 	 3.911629 
H 	 -6.261943 	 -2.882312 	 -3.410978 
H 	 -5.239620 	 -3.444483 	 -2.327925 
H 	 -0.348102 	 1.902472 	 -3.348199 
H 	 -1.785354 	 1.819508 	 -2.840834 
H 	 4.985474 	 5.623046 	 -1.176574 
H 	 4.410877 	 5.905199 	 0.139587 
H 	 -0.268194 	 3.119562 	 -0.091530 
H 	 -0.941618 	 3.186717 	 1.209097 
H 	 -0.263370 	 6.167302 	 0.144964 
H 	 -1.601640 	 5.784037 	 -0.358347 
H 	 6.466084 	 0.840291 	 2.935664 
H 	 5.318835 	 1.766222 	 2.375356 
H 	 6.829051 	 3.188105 	 6.975380 
H 	 6.609537 	 3.857545 	 -6.547808 
H 	 -3.971164 	 -3.513591 	 2.502919 
H 	 -5.216890 	 -4.280875 	 3.233572 
H 	 2.432862 	 4.895074 	 1.625575 
H 	 1.931093 	 5.045723 	 0.188457 
H 	 0.681696 	 -0.594044 	 5.872570 
H 	 2.117367 	 -1.191346 	 5.839246 
H 	 -5.158455 	 0.495784 	 -4.748786 
H 	 -6.560760 	 0.946519 	 -4.203032 
H 	 -0.935093 	 -0.184976 	 0.050310 
H 	 -1.028108 	 -1.302662 	 1.065210 
H 	 0.188801 	 -7.329272 	 -3.342192 
H 	 -0.434797 	 7.052164 	 -2.102624 
H 	 -3.277892 	 2.420323 	 -1.343364 
H 	 -2.215303 	 3.426185 	 -1.277745 
H 	 -5.735092 	 0.080849 	 2.458364 
H 	 -6.830898 	 -0.949300 	 2.689247 
H 	 4.783965 	 -4.810169 	 -0.631264 
H 	 4.481865 	 -6.440497 	 -0.509832 
H 	 7.464102 	 -1.400935 	 6.321689 
H 	 -7.223168 	 -1.248819 	 4.814521 
H 	 -7.003647 	 -3.718373 	 4.843732 
H 	 -6.867118 	 -5.219077 	 4.500855 
H 	 -6.320235 	 -0.470844 	 -7.147410 
H 	 -7.072146 	 -1.505942 	 -6.274973 
H 	 3.314289 	 4.464446 	 4.250398 
H 	 2.236596 	 3.460716 	 3.687787 
H 	 6.055824 	 -2.725158 	 3.449807 
H 	 6.986798 	 -3.629026 	 2.722001 
H 	 6.684430 	 3.587124 	 -1.095429 
H 	 -7.336424 	 4.103416 	 0.175740 
H 	 0.189075 	 5.016235 	 -3.969706 
H 	 -1.090812 	 5.777210 	 -4.306490 
H 	 -4.466325 	 -2.441789 	 5.799648 
H 	 -4.341221 	 -2.540311 	 4.288257 
H 	 -7.406105 	 4.289673 	 2.296118 
H 	 -6.732022 	 5.591582 	 2.114002 
H 	 4.067341 	 -5.670362 	 1.658378 
H 	 4.191538 	 -4.550416 	 2.728682 
H 	 -7.078388 	 -3.742088 	 0.044467 
H 	 6.846910 	 -2.813020 	 -0.812186 
H 	 4.414217 	 -0.327614 	 2.971778 
H 	 3.792773 	 -1.713949 	 3.411728 
H 	 -0.575371 	 -1.606290 	 -4.363248 
H 	 -0.119765 	 -0.296000 	 -5.142334 
H 	 1.231222 	 -3.232730 	 -1.806468 
H 	 1.728748 	 -2.596145 	 -0.390461 
H 	 0.635233 	 4.294197 	 -1.936935 
H 	 1.550029 	 3.574217 	 -3.062875 
H 	 0.269725 	 -6.368677 	 1.083887 
H 	 -0.254745 	 -5.936801 	 -0.259029 
H 	 1.629550 	 2.170353 	 0.604325 
H 	 2.194401 	 2.297885 	 -0.767458 
H 	 -0.819921 	 -2.177987 	 3.749316 
H 	 0.611993 	 -2.423918 	 4.209526 
H 	 4.309976 	 1.681285 	 4.658923 
H 	 0.371328 	 1.110082 	 -6.952039 
H 	 -2.678400 	 -6.215713 	 -0.104885 
H 	 -3.351296 	 7.289492 	 0.069453 
H 	 -6.946905 	 -6.478811 	 1.389285 
H 	 6.678555 	 -5.802107 	 0.806417 
H 	 5.783767 	 1.079373 	 -2.635082 
H 	 5.895249 	 0.920586 	 -4.128156 
H 	 2.314172 	 7.222057 	 6.489699 
H 	 2.447927 	 -7.050976 	 5.091491 
H 	 0.643111 	 2.171381 	 -5.849867 
O 	 -4.400323 	 7.260030 	 4.905925 
O 	 -7.391673 	 3.588845 	 -4.989709 
O 	 -2.596473 	 6.465774 	 -3.480651 
O 	 -6.541725 	 7.237328 	 2.807507 
O 	 -3.537600 	 5.571785 	 -0.065864 
O 	 -5.437305 	 4.902846 	 -2.131563 
O 	 -1.211397 	 3.047233 	 3.427448 
O 	 -3.434111 	 -1.496033 	 -2.147870 
O 	 -1.269181 	 4.513743 	 -6.839160 
O 	 -2.214819 	 -3.732205 	 -1.317095 
O 	 6.012723 	 -7.082905 	 4.395898 
O 	 -0.765967 	 -0.632372 	 -1.589930 
O 	 4.983838 	 -3.360440 	 -1.496299 
O 	 -5.321263 	 -0.683400 	 -0.174185 
O 	 2.451515 	 -7.329362 	 -6.625626 
O 	 -5.512142 	 -7.220883 	 -1.969781 
O 	 5.425667 	 4.408686 	 -2.697130 
O 	 -2.803984 	 1.755328 	 -6.103672 
O 	 -0.097776 	 0.792415 	 6.344876 
O 	 3.467479 	 -0.036459 	 7.482673 
O 	 0.316993 	 -5.633525 	 6.707957 
O 	 4.388735 	 -2.745039 	 -7.227073 
O 	 -4.997471 	 4.296303 	 4.647427 
O 	 -2.705118 	 -6.584041 	 3.085126 
O 	 4.501614 	 3.040331 	 1.218212 
O 	 3.216123 	 -6.953083 	 -2.576401 
O 	 0.650152 	 -4.293055 	 -3.235032 
O 	 3.100486 	 -5.262080 	 5.760095 
O 	 -4.496351 	 -4.004660 	 -5.491336 
O 	 -5.376112 	 1.410857 	 6.947208 
O 	 6.618888 	 6.851510 	 -3.695700 
O 	 -5.046470 	 1.850760 	 -0.873084 
O 	 -6.568115 	 5.942809 	 7.090874 
O 	 -4.212450 	 -0.956464 	 -5.052087 
O 	 -3.745009 	 3.563401 	 1.966717 
O 	 6.963666 	 4.056387 	 4.189766 
O 	 -2.952779 	 2.801886 	 5.743419 
O 	 3.721514 	 4.259146 	 -7.199249 
O 	 3.239970 	 1.110248 	 -1.549508 
O 	 7.205695 	 -1.890683 	 -4.140406 
O 	 2.535123 	 -4.769986 	 -5.259376 
O 	 6.650462 	 0.342990 	 -0.063285 
O 	 -2.141647 	 -3.351647 	 1.451011 
O 	 -5.813672 	 7.277688 	 -4.772911 
O 	 2.642101 	 -1.044985 	 -3.588481 
O 	 4.659366 	 5.501948 	 5.266943 
O 	 -2.650129 	 -5.744130 	 -4.361713 
O 	 -1.549511 	 -2.952946 	 -4.181048 
O 	 1.176151 	 2.118313 	 4.475613 
O 	 -1.859583 	 -0.500389 	 4.324831 
O 	 -0.998429 	 6.091677 	 2.573519 
O 	 5.144095 	 -3.687161 	 -4.832816 
O 	 7.030453 	 1.562209 	 5.751971 
O 	 4.692616 	 -2.788367 	 4.541653 
O 	 3.246709 	 3.271734 	 -4.285234 
O 	 7.122517 	 -5.924275 	 -2.064460 
O 	 -3.951141 	 5.019898 	 -6.671369 
O 	 5.323407 	 -5.911826 	 7.285555 
O 	 5.298760 	 6.613741 	 -6.261915 
O 	 4.347355 	 0.817485 	 -4.900389 
O 	 1.957012 	 -3.591071 	 1.198567 
O 	 4.395820 	 -1.288760 	 0.141134 
O 	 -6.482155 	 -5.591452 	 -6.623849 
O 	 0.756394 	 -2.932702 	 -6.923679 
O 	 -0.761715 	 -7.086236 	 -6.048177 
O 	 1.640119 	 0.721284 	 1.570660 
O 	 1.719277 	 -6.902325 	 1.756827 
O 	 -3.755816 	 0.646667 	 1.733546 
O 	 -3.535016 	 -6.463412 	 7.338772 
O 	 1.033433 	 4.322871 	 6.219423 
O 	 -0.083233 	 -5.422837 	 3.823460 
O 	 -5.733702 	 -3.685654 	 -3.106803 
O 	 -1.140404 	 1.347551 	 -3.415957 
O 	 5.003692 	 6.313885 	 -0.518599 
O 	 -1.161086 	 3.237742 	 0.282345 
O 	 -0.659431 	 5.783972 	 -0.678451 
O 	 5.479233 	 1.083402 	 3.050188 
O 	 6.502753 	 4.042935 	 7.346657 
O 	 -4.905487 	 -3.524467 	 2.790900 
O 	 2.239395 	 5.552170 	 0.944249 
O 	 1.193987 	 -1.439623 	 5.670424 
O 	 -5.761400 	 1.264503 	 -4.698859 
O 	 -1.134625 	 -0.323818 	 1.036484 
O 	 0.130559 	 -7.104964 	 -2.413251 
O 	 -2.757464 	 2.967649 	 -1.969678 
O 	 -6.494252 	 -0.078151 	 2.976515 
O 	 4.963821 	 -5.668037 	 -0.118403 
O 	 6.963973 	 -1.151461 	 5.481016 
O 	 -6.750094 	 -4.578439 	 5.200868 
O 	 -6.618180 	 -1.408527 	 -7.183213 
O 	 2.811254 	 4.231410 	 3.461537 
O 	 6.989566 	 -2.766647 	 3.162639 
O 	 -7.398879 	 3.426009 	 -0.579783 
O 	 -0.203083 	 5.694270 	 -4.553485 
O 	 -4.183200 	 -1.900754 	 5.049386 
O 	 -7.095665 	 4.826601 	 1.563161 
O 	 4.125943 	 -5.482659 	 2.617735 
O 	 -7.203975 	 -2.828070 	 -0.332320 
O 	 3.729306 	 -1.004607 	 2.720161 
O 	 0.176894 	 -1.233134 	 -4.852839 
O 	 1.527488 	 -2.394118 	 -1.343334 
O 	 0.620453 	 3.731232 	 -2.753778 
O 	 -0.522425 	 -5.955930 	 0.696591 
O 	 1.667888 	 2.824686 	 -0.128002 
O 	 -0.032085 	 -2.762305 	 3.522930 
O 	 3.777229 	 2.056996 	 5.413739 
O 	 -3.558737 	 -6.637723 	 -0.061845 
O 	 -7.277986 	 -5.599507 	 1.072797 
O 	 6.474933 	 0.847564 	 -3.275039 
O 	 2.278309 	 6.953809 	 5.481343 
O 	 0.780743 	 1.199507 	 -6.033437 
K 	 -4.267295 	 3.830183 	 -4.409213 
