333
conformation = 39
H 	 -4.619900 	 6.244558 	 4.989401 
H 	 -4.739951 	 -7.305543 	 5.740065 
H 	 6.723495 	 3.260503 	 -4.421857 
H 	 -6.984137 	 2.783092 	 -5.281541 
H 	 -2.858033 	 6.255499 	 -2.382509 
H 	 -3.119611 	 7.308241 	 -3.495157 
H 	 -7.342723 	 7.451167 	 3.480919 
H 	 -5.800764 	 7.187538 	 3.390768 
H 	 -3.715035 	 4.934255 	 0.624720 
H 	 -4.242601 	 4.961061 	 -0.853296 
H 	 -6.457327 	 4.416231 	 -1.856745 
H 	 -5.912583 	 5.776958 	 -2.105841 
H 	 -0.597059 	 2.704650 	 3.836906 
H 	 -1.129386 	 4.038339 	 3.286216 
H 	 -4.268023 	 -1.430118 	 -1.493049 
H 	 -2.693408 	 -1.159485 	 -2.021161 
H 	 -0.801498 	 4.643411 	 7.303343 
H 	 -1.187742 	 5.228830 	 -6.228512 
H 	 -2.756482 	 -3.094333 	 -1.885844 
H 	 -1.491936 	 -4.001771 	 -1.605284 
H 	 5.223908 	 7.145610 	 4.589660 
H 	 5.178478 	 -6.471550 	 3.750264 
H 	 -0.133066 	 -1.214208 	 -1.599832 
H 	 -1.017044 	 0.045691 	 -2.320688 
H 	 4.377593 	 -3.288651 	 -2.469140 
H 	 4.459004 	 -2.648159 	 -0.978581 
H 	 -6.187099 	 -1.521496 	 0.207159 
H 	 -4.874912 	 -0.509097 	 0.462134 
H 	 3.293359 	 7.151304 	 -6.539675 
H 	 2.325469 	 -6.582208 	 -6.126132 
H 	 -6.507579 	 -6.756163 	 -1.902031 
H 	 -4.935450 	 -6.868881 	 -1.627593 
H 	 5.511779 	 5.318187 	 -3.166973 
H 	 4.347800 	 4.112467 	 -3.324236 
H 	 -2.324173 	 1.887189 	 -5.568266 
H 	 -3.212013 	 0.705126 	 -6.092366 
H 	 0.201730 	 1.260744 	 5.311692 
H 	 -1.195939 	 0.473945 	 5.864650 
H 	 2.236860 	 0.202753 	 -7.227853 
H 	 3.337112 	 0.504133 	 6.586745 
H 	 -0.156083 	 -5.632418 	 5.607384 
H 	 0.043590 	 -4.717612 	 6.894787 
H 	 3.620302 	 -2.002307 	 7.327314 
H 	 3.586976 	 -3.534892 	 7.187700 
H 	 -4.854337 	 3.544026 	 5.203750 
H 	 -6.242810 	 4.178179 	 4.539450 
H 	 -3.477459 	 -6.745758 	 2.136673 
H 	 -3.497423 	 -6.957684 	 3.687040 
H 	 3.677467 	 2.924271 	 0.435195 
H 	 3.501626 	 3.421606 	 1.869164 
H 	 2.990074 	 7.058553 	 -2.239923 
H 	 2.189189 	 -6.860304 	 -3.076759 
H 	 1.084065 	 -4.378121 	 -3.999164 
H 	 0.334623 	 -5.276618 	 -3.165144 
H 	 3.447953 	 -5.606261 	 6.483332 
H 	 2.030888 	 -5.256487 	 5.998352 
H 	 -5.423776 	 -4.075030 	 -6.149971 
H 	 -5.083612 	 -4.037235 	 -4.635609 
H 	 -4.791503 	 1.207978 	 6.445228 
H 	 -5.447645 	 1.986365 	 -7.214397 
H 	 6.327874 	 -7.283311 	 -3.095222 
H 	 7.232361 	 6.925234 	 -4.162673 
H 	 -5.471582 	 0.844661 	 -0.800166 
H 	 -5.936479 	 2.308251 	 -0.740608 
H 	 -6.623895 	 5.960876 	 -6.915913 
H 	 -7.234676 	 5.173511 	 6.867438 
H 	 -4.843474 	 -1.730513 	 -5.543826 
H 	 -4.101269 	 -1.325986 	 -4.149841 
H 	 -3.229245 	 3.173250 	 2.301222 
H 	 -4.569498 	 3.647692 	 2.687230 
H 	 6.610982 	 3.064407 	 4.552657 
H 	 5.885406 	 4.475441 	 4.297965 
H 	 -2.622168 	 2.470160 	 6.370736 
H 	 -2.531153 	 3.065613 	 5.014260 
H 	 2.560790 	 4.306362 	 7.403158 
H 	 3.711309 	 3.289565 	 7.255757 
H 	 3.162448 	 0.347469 	 -0.961429 
H 	 2.857784 	 0.497928 	 -2.386047 
H 	 6.862892 	 -0.954845 	 -3.796610 
H 	 6.160529 	 -2.162885 	 -4.337046 
H 	 1.902185 	 -3.963473 	 -5.994218 
H 	 3.103455 	 -4.651431 	 -5.126896 
H 	 6.595418 	 1.373076 	 -0.135286 
H 	 7.243464 	 -0.064680 	 0.131322 
H 	 -2.277816 	 -3.378059 	 0.347461 
H 	 -1.949172 	 -4.039605 	 1.830779 
H 	 -5.596961 	 7.447449 	 -4.123738 
H 	 -6.152584 	 -6.956549 	 -5.524602 
H 	 2.369711 	 -1.466649 	 -2.733690 
H 	 1.671278 	 -1.168371 	 -4.008129 
H 	 4.651763 	 5.108788 	 6.218153 
H 	 3.611751 	 5.962701 	 5.397229 
H 	 -3.553981 	 -5.233748 	 -5.032391 
H 	 -2.193365 	 -6.092680 	 -5.169879 
H 	 -1.088491 	 -3.735680 	 -4.249631 
H 	 -2.571651 	 -3.486696 	 -4.622949 
H 	 2.597701 	 1.915154 	 4.945959 
H 	 1.059230 	 1.680064 	 3.469166 
H 	 -2.930735 	 -1.091030 	 4.321023 
H 	 -2.310539 	 0.085374 	 3.483935 
H 	 -0.421639 	 6.563007 	 2.471519 
H 	 -1.950445 	 6.563052 	 2.448559 
H 	 5.309301 	 -4.568888 	 -4.929927 
H 	 4.764245 	 -3.342644 	 -5.782572 
H 	 6.497506 	 0.628607 	 5.442519 
H 	 -7.221184 	 1.300455 	 6.322985 
H 	 5.116636 	 -2.386846 	 4.977517 
H 	 4.011196 	 -3.439502 	 5.023947 
H 	 3.328938 	 2.377826 	 -4.681078 
H 	 3.174891 	 3.782118 	 -5.193308 
H 	 7.199904 	 -5.002572 	 -2.195660 
H 	 6.058691 	 -5.879153 	 -1.549893 
H 	 -4.555416 	 5.485919 	 -7.428278 
H 	 -3.195782 	 4.663519 	 -7.180958 
H 	 5.249702 	 -6.920092 	 7.428088 
H 	 5.684399 	 -5.886674 	 6.371210 
H 	 4.788427 	 5.654729 	 -6.539028 
H 	 5.402260 	 6.607068 	 -5.422812 
H 	 3.822603 	 0.426468 	 -5.954979 
H 	 3.612396 	 0.109812 	 -4.452104 
H 	 1.451889 	 -3.233529 	 1.828794 
H 	 1.308230 	 -4.600122 	 0.940112 
H 	 4.941566 	 -0.729589 	 0.036820 
H 	 3.878667 	 -1.413399 	 1.027385 
H 	 -6.525097 	 -5.625312 	 7.169617 
H 	 -7.554805 	 -5.659332 	 -6.563756 
H 	 0.001034 	 -2.503170 	 -6.388396 
H 	 0.482362 	 -2.519324 	 7.014857 
H 	 -0.422916 	 -7.060811 	 -7.096515 
H 	 -0.483516 	 7.360803 	 -5.646027 
H 	 0.529374 	 0.310386 	 1.446193 
H 	 2.014671 	 -0.024009 	 1.523295 
H 	 2.224092 	 -6.488006 	 2.192775 
H 	 1.792819 	 7.098914 	 1.404801 
H 	 -2.953137 	 0.283162 	 1.455609 
H 	 -4.056580 	 1.383779 	 1.402859 
H 	 -4.110044 	 -5.949266 	 -7.013456 
H 	 -3.082857 	 -7.018231 	 -7.336994 
H 	 0.667361 	 3.502804 	 5.598048 
H 	 0.832325 	 5.082806 	 5.676355 
H 	 -1.156960 	 -5.854674 	 3.488236 
H 	 -0.431329 	 -4.421011 	 3.504739 
H 	 -6.479904 	 -2.956225 	 -3.240787 
H 	 -5.125847 	 -3.384338 	 -2.715569 
H 	 -0.655402 	 1.809405 	 -3.476252 
H 	 -2.160873 	 1.917136 	 -3.001428 
H 	 4.924191 	 5.361345 	 -1.091102 
H 	 4.528790 	 5.945837 	 0.226607 
H 	 -0.382007 	 3.109671 	 0.115586 
H 	 -1.543190 	 3.301135 	 1.060486 
H 	 -0.404614 	 5.523282 	 0.049886 
H 	 -1.732801 	 5.389847 	 -0.488063 
H 	 6.234370 	 0.857817 	 2.903909 
H 	 4.981396 	 1.566501 	 2.291164 
H 	 6.041300 	 3.225009 	 6.761087 
H 	 6.657163 	 3.614847 	 -6.754403 
H 	 -4.279286 	 -3.627215 	 2.016036 
H 	 -4.980067 	 -4.252053 	 3.333783 
H 	 2.033326 	 5.062186 	 1.715453 
H 	 1.982106 	 4.716570 	 0.280401 
H 	 0.360363 	 -0.634489 	 5.765799 
H 	 1.738895 	 -1.243944 	 5.802054 
H 	 -5.502835 	 0.561460 	 -4.890885 
H 	 -6.602584 	 1.133856 	 -3.837635 
H 	 -1.134396 	 -0.423863 	 -0.054756 
H 	 -1.533897 	 -1.250587 	 1.195631 
H 	 -0.081297 	 7.106190 	 -3.202643 
H 	 -0.451547 	 7.210579 	 -1.766402 
H 	 -3.867220 	 2.680045 	 -1.577839 
H 	 -2.427275 	 3.082878 	 -1.207277 
H 	 -5.900202 	 0.094626 	 2.682619 
H 	 -6.796498 	 -1.111330 	 2.640825 
H 	 4.493040 	 -4.894703 	 -0.695329 
H 	 4.164498 	 -6.552680 	 -0.765090 
H 	 7.192181 	 -1.455835 	 6.085117 
H 	 -7.382265 	 -1.003933 	 4.766088 
H 	 -7.302279 	 -4.143619 	 4.519443 
H 	 -7.042117 	 -5.634400 	 4.869001 
H 	 -6.380175 	 -0.508978 	 -7.282763 
H 	 -7.388170 	 -1.310525 	 -6.495934 
H 	 3.351863 	 4.611286 	 3.913859 
H 	 2.214984 	 3.492107 	 3.997387 
H 	 5.812446 	 -3.061602 	 3.206163 
H 	 7.024061 	 -3.517254 	 2.335160 
H 	 6.557985 	 3.739932 	 -1.327170 
H 	 7.273832 	 3.955273 	 0.067340 
H 	 -0.234123 	 5.054673 	 -3.989759 
H 	 -1.356662 	 6.151663 	 -4.208320 
H 	 -4.611219 	 -2.668091 	 5.476074 
H 	 -4.692792 	 -2.233826 	 4.073241 
H 	 7.249365 	 4.395914 	 2.270085 
H 	 -7.231626 	 5.679756 	 1.797524 
H 	 4.376466 	 -5.457414 	 1.735779 
H 	 3.779549 	 -4.693860 	 2.991070 
H 	 -7.381456 	 -3.707684 	 0.081335 
H 	 6.540688 	 -2.902375 	 -0.877211 
H 	 4.121041 	 -0.211637 	 2.785477 
H 	 3.772149 	 -1.619776 	 3.349695 
H 	 -0.884757 	 -1.705920 	 -4.822965 
H 	 -0.119489 	 -0.316203 	 -5.306499 
H 	 0.952567 	 -3.133076 	 -2.072395 
H 	 1.377389 	 -2.884206 	 -0.522247 
H 	 0.557335 	 3.886738 	 -1.923693 
H 	 1.326446 	 3.614847 	 -3.202916 
H 	 0.096738 	 -6.355421 	 0.996513 
H 	 -0.343787 	 -6.001455 	 -0.446822 
H 	 1.465094 	 2.169606 	 0.390230 
H 	 1.761644 	 2.348147 	 -1.077741 
H 	 -1.131988 	 -2.159476 	 3.449425 
H 	 0.094873 	 -2.355133 	 4.297988 
H 	 4.151512 	 2.256699 	 4.761745 
H 	 0.131947 	 1.236849 	 -7.053202 
H 	 -3.040200 	 -6.126947 	 -0.255400 
H 	 -3.514799 	 7.254795 	 -0.123750 
H 	 -7.144616 	 -6.324971 	 1.450410 
H 	 6.555228 	 -5.908710 	 0.453764 
H 	 5.820826 	 0.779280 	 -2.515090 
H 	 5.506489 	 0.763786 	 -4.096530 
H 	 1.891392 	 -7.414633 	 6.280809 
H 	 1.861809 	 -7.217545 	 4.821030 
H 	 0.871468 	 1.984360 	 -5.818665 
O 	 -4.610258 	 7.215658 	 4.848794 
O 	 7.218631 	 3.513452 	 -5.193976 
O 	 -2.843919 	 6.368238 	 -3.382067 
O 	 -6.643796 	 7.208686 	 2.844258 
O 	 -3.726730 	 5.502731 	 -0.187374 
O 	 -5.642224 	 4.828630 	 -2.212642 
O 	 -1.337789 	 3.068730 	 3.285727 
O 	 -3.631650 	 -1.472793 	 -2.247781 
O 	 -1.449142 	 4.491366 	 -6.899143 
O 	 -2.409377 	 -3.827515 	 -1.348644 
O 	 5.827155 	 -7.025663 	 4.278368 
O 	 -0.972008 	 -0.681328 	 -1.616736 
O 	 4.686564 	 -3.447897 	 -1.535826 
O 	 -5.568772 	 -0.857161 	 -0.179470 
O 	 2.334484 	 7.442798 	 -6.545994 
O 	 -5.701701 	 -7.357900 	 -2.031628 
O 	 5.179478 	 4.418400 	 -2.829261 
O 	 -3.085259 	 1.673409 	 -6.135995 
O 	 -0.270054 	 0.741138 	 6.172056 
O 	 3.136106 	 -0.086760 	 7.357956 
O 	 0.173949 	 -5.618920 	 6.549041 
O 	 4.178410 	 -2.783816 	 -7.458942 
O 	 -5.276641 	 4.223587 	 4.555899 
O 	 -2.937099 	 -6.560337 	 2.930639 
O 	 4.202692 	 3.026848 	 1.273986 
O 	 3.069838 	 -6.950171 	 -2.637633 
O 	 0.398273 	 -4.330625 	 -3.294564 
O 	 2.965680 	 -5.370748 	 5.669479 
O 	 -4.645420 	 -3.986349 	 -5.542312 
O 	 -5.609549 	 1.338323 	 6.987147 
O 	 6.333653 	 6.831143 	 -3.714780 
O 	 -5.203769 	 1.768813 	 -0.982537 
O 	 -6.653909 	 5.953696 	 7.001829 
O 	 -4.347730 	 -1.020795 	 -5.074620 
O 	 -4.091086 	 3.458734 	 1.879137 
O 	 6.733482 	 4.004142 	 4.089560 
O 	 -3.174841 	 2.762478 	 5.666811 
O 	 3.471843 	 4.125590 	 -7.156129 
O 	 3.081975 	 1.072641 	 -1.656556 
O 	 7.053872 	 -1.823348 	 -4.207116 
O 	 2.181220 	 -4.757946 	 -5.442613 
O 	 6.381524 	 0.391690 	 -0.150347 
O 	 -2.323997 	 -3.249020 	 1.356257 
O 	 -6.064565 	 7.154070 	 -4.944876 
O 	 2.602503 	 -1.151297 	 -3.611253 
O 	 4.448901 	 5.424493 	 5.261775 
O 	 -2.877028 	 -5.775698 	 -4.558626 
O 	 -1.767957 	 -3.054070 	 -4.285899 
O 	 1.001036 	 2.055263 	 4.378921 
O 	 -2.131182 	 -0.566673 	 4.208471 
O 	 -1.188519 	 5.971520 	 2.564449 
O 	 4.903831 	 -3.723252 	 -4.874533 
O 	 6.993311 	 1.499074 	 5.697411 
O 	 4.439209 	 -2.828923 	 4.428644 
O 	 2.979309 	 3.259161 	 -4.456738 
O 	 6.853738 	 -5.951127 	 -2.098132 
O 	 -4.074069 	 4.866707 	 -6.766129 
O 	 5.151931 	 -5.976527 	 7.177903 
O 	 5.133765 	 6.571277 	 -6.364134 
O 	 4.068237 	 0.741265 	 -5.014396 
O 	 1.711068 	 -3.708400 	 1.010018 
O 	 4.202795 	 -1.415900 	 0.083123 
O 	 -6.601647 	 -5.580172 	 -6.745897 
O 	 0.551436 	 -3.053058 	 -7.030817 
O 	 -0.985888 	 -7.046956 	 -6.277680 
O 	 1.404100 	 0.727597 	 1.440527 
O 	 1.481619 	 -6.882813 	 1.678998 
O 	 -3.947369 	 0.430876 	 1.542582 
O 	 -3.803803 	 -6.493198 	 7.173796 
O 	 0.676264 	 4.270264 	 6.180561 
O 	 -0.339954 	 -5.410552 	 3.754841 
O 	 -5.875250 	 -3.734348 	 -3.187040 
O 	 -1.496170 	 1.324876 	 -3.531927 
O 	 4.907741 	 6.205146 	 -0.629978 
O 	 -1.364984 	 3.173898 	 0.133014 
O 	 -0.872204 	 5.776360 	 -0.775564 
O 	 5.261073 	 1.064095 	 3.071519 
O 	 6.344726 	 3.965990 	 7.294055 
O 	 -5.028269 	 -3.586632 	 2.677303 
O 	 2.089804 	 5.485106 	 0.854353 
O 	 0.838104 	 -1.489650 	 5.544961 
O 	 -6.028118 	 1.335560 	 -4.625510 
O 	 -1.232000 	 -0.336093 	 0.988658 
O 	 -0.126351 	 -7.105560 	 -2.513098 
O 	 -3.009086 	 2.869014 	 -2.032248 
O 	 -6.781525 	 -0.163778 	 2.858523 
O 	 4.692339 	 -5.831720 	 -0.331744 
O 	 6.685685 	 -1.195675 	 5.258788 
O 	 -6.876234 	 -4.736761 	 5.153989 
O 	 -6.752151 	 -1.427070 	 -7.281892 
O 	 2.563172 	 4.247927 	 3.456066 
O 	 6.782603 	 -2.944189 	 3.080938 
O 	 7.227713 	 3.385299 	 -0.711725 
O 	 -0.559394 	 5.702530 	 -4.620531 
O 	 -4.353832 	 -1.920088 	 4.922187 
O 	 -7.236657 	 4.726155 	 1.468694 
O 	 4.014655 	 -5.530196 	 2.629157 
O 	 -7.461398 	 -2.892786 	 -0.493542 
O 	 3.504651 	 -0.961521 	 2.650078 
O 	 -0.032801 	 -1.252169 	 -4.919088 
O 	 1.226391 	 -2.440604 	 -1.426100 
O 	 0.421555 	 3.665295 	 -2.873713 
O 	 -0.728791 	 -6.005622 	 0.475416 
O 	 1.484036 	 2.872310 	 -0.284912 
O 	 -0.341922 	 -2.742056 	 3.522743 
O 	 3.505731 	 1.967847 	 5.443618 
O 	 -3.827438 	 -6.697699 	 -0.156579 
O 	 -7.486239 	 -5.590383 	 0.872645 
O 	 6.266926 	 0.796884 	 -3.376059 
O 	 2.035155 	 6.934402 	 5.432446 
O 	 0.646586 	 1.099583 	 -6.214495 
K 	 -4.456972 	 3.803402 	 -4.527630 
