333
conformation = 58
H 	 -4.596559 	 6.249098 	 4.946541 
H 	 -4.409964 	 -7.341142 	 5.896619 
H 	 6.797754 	 3.289280 	 -4.235857 
H 	 -6.967416 	 2.686259 	 -5.077380 
H 	 -2.893189 	 6.180056 	 -2.443595 
H 	 -2.851923 	 7.382010 	 -3.541382 
H 	 -7.402369 	 7.355125 	 3.397151 
H 	 -5.937803 	 7.035630 	 3.611615 
H 	 -3.741148 	 4.947109 	 0.770609 
H 	 -4.232558 	 5.152212 	 -0.716099 
H 	 -6.245735 	 4.372309 	 -1.673008 
H 	 -5.655330 	 5.842847 	 -2.040164 
H 	 -0.371066 	 2.740929 	 3.797711 
H 	 -1.242151 	 3.999175 	 3.350249 
H 	 -4.033537 	 -1.084123 	 -1.371898 
H 	 -2.585242 	 -1.280804 	 -1.826478 
H 	 -0.614252 	 4.382481 	 7.490636 
H 	 -0.909974 	 4.790249 	 -5.934697 
H 	 -2.639741 	 -2.999884 	 -1.749530 
H 	 -1.449631 	 -3.886481 	 -1.681745 
H 	 5.487335 	 6.948265 	 4.681058 
H 	 5.381094 	 -6.592582 	 3.787556 
H 	 -0.037093 	 -1.191218 	 -1.718266 
H 	 -0.826956 	 0.070311 	 -2.208482 
H 	 4.541282 	 -3.360482 	 -2.325812 
H 	 4.415271 	 -2.711036 	 -0.910290 
H 	 -5.922972 	 -1.613709 	 0.136014 
H 	 -4.844099 	 -0.571550 	 0.692180 
H 	 3.339517 	 7.237193 	 -6.340394 
H 	 2.361300 	 -6.458292 	 -6.317342 
H 	 -6.392178 	 -6.900242 	 -1.506936 
H 	 -4.858755 	 -6.940989 	 -1.361001 
H 	 5.800557 	 5.136808 	 -3.113791 
H 	 4.449715 	 4.242061 	 -3.174904 
H 	 -2.130116 	 1.943353 	 -5.553575 
H 	 -2.966815 	 0.760662 	 -5.829921 
H 	 0.370443 	 1.346294 	 5.677167 
H 	 -1.035619 	 0.704740 	 5.973035 
H 	 2.510115 	 0.345206 	 -7.053029 
H 	 3.659741 	 0.518288 	 6.848295 
H 	 -0.080458 	 -5.605067 	 5.778952 
H 	 -0.170797 	 -4.924643 	 7.244520 
H 	 3.967151 	 -1.888127 	 -7.306683 
H 	 3.652072 	 -3.351809 	 7.301088 
H 	 -4.762582 	 3.507867 	 5.212565 
H 	 -6.075521 	 4.175121 	 4.775914 
H 	 -3.328606 	 -6.288149 	 2.372446 
H 	 -3.430333 	 -6.932803 	 3.835872 
H 	 3.761071 	 2.600423 	 0.678079 
H 	 3.867363 	 3.395923 	 2.027587 
H 	 3.117324 	 7.071341 	 -1.967636 
H 	 2.212798 	 -6.798426 	 -2.733111 
H 	 1.296892 	 -4.403970 	 -3.852128 
H 	 0.287655 	 -5.196959 	 -2.801231 
H 	 3.750690 	 -5.741474 	 6.372909 
H 	 2.170822 	 -5.440151 	 6.292827 
H 	 -5.369049 	 -4.275634 	 -5.947125 
H 	 -4.928269 	 -4.028528 	 -4.513281 
H 	 -4.618103 	 1.227276 	 6.572685 
H 	 -5.159570 	 1.901738 	 -7.139810 
H 	 6.437620 	 -7.315696 	 -3.037541 
H 	 -7.459670 	 6.849114 	 -4.016675 
H 	 -5.420574 	 0.931489 	 -0.498963 
H 	 -5.821230 	 2.449167 	 -0.598360 
H 	 -6.448149 	 5.947627 	 -6.796882 
H 	 -7.295025 	 5.200711 	 7.054604 
H 	 -4.698830 	 -1.803233 	 -5.377541 
H 	 -4.001638 	 -1.384185 	 -4.064667 
H 	 -2.992437 	 3.210281 	 2.370982 
H 	 -4.381385 	 3.918209 	 2.742115 
H 	 6.956048 	 3.157569 	 4.789953 
H 	 6.142597 	 4.584569 	 4.628734 
H 	 -2.469683 	 2.536126 	 6.558923 
H 	 -2.488112 	 2.791516 	 4.981773 
H 	 2.718233 	 4.478074 	 -7.254220 
H 	 3.716805 	 3.384618 	 7.247340 
H 	 3.709281 	 0.349063 	 -1.021051 
H 	 2.960914 	 0.763560 	 -2.396240 
H 	 6.752420 	 -1.275176 	 -3.422790 
H 	 6.486745 	 -2.600830 	 -4.193049 
H 	 2.086116 	 -4.169945 	 -5.919582 
H 	 3.231459 	 -4.356649 	 -4.919756 
H 	 6.697347 	 1.267203 	 -0.159236 
H 	 -7.435973 	 -0.068872 	 0.105140 
H 	 -2.294881 	 -3.848788 	 0.615072 
H 	 -1.644059 	 -3.935535 	 2.010397 
H 	 -5.517367 	 7.340257 	 -3.883194 
H 	 -5.755203 	 -6.848719 	 -5.215716 
H 	 2.345897 	 -1.553981 	 -2.688418 
H 	 1.849748 	 -1.177311 	 -4.122194 
H 	 4.795178 	 4.839457 	 6.118877 
H 	 3.776303 	 5.964073 	 5.652551 
H 	 -3.205413 	 -5.446716 	 -5.170752 
H 	 -1.874982 	 -6.119710 	 -4.748228 
H 	 -1.077678 	 -3.802754 	 -3.899302 
H 	 -2.405891 	 -3.304200 	 -4.604060 
H 	 2.707021 	 1.914540 	 5.136344 
H 	 1.194764 	 1.561873 	 3.687642 
H 	 -2.905092 	 -0.615246 	 4.717402 
H 	 -2.023181 	 0.122766 	 3.662439 
H 	 -0.246320 	 6.523970 	 2.678223 
H 	 -1.754330 	 6.751292 	 2.582643 
H 	 5.701187 	 -4.419642 	 -4.661626 
H 	 5.143247 	 -3.531604 	 -5.745264 
H 	 6.845795 	 0.493684 	 5.656561 
H 	 -6.997883 	 1.532022 	 6.181577 
H 	 5.326237 	 -2.383156 	 5.124743 
H 	 4.278727 	 -3.623561 	 5.072451 
H 	 3.686054 	 2.435890 	 -4.419284 
H 	 3.182311 	 3.630756 	 -5.165375 
H 	 7.166789 	 -5.071648 	 -2.340012 
H 	 6.291550 	 -5.935926 	 -1.296385 
H 	 -4.596232 	 5.367514 	 -7.287558 
H 	 -3.081513 	 4.884314 	 -6.982592 
H 	 5.413516 	 -6.797710 	 -7.054533 
H 	 5.719852 	 -6.112293 	 6.465362 
H 	 5.431613 	 5.639046 	 -6.505085 
H 	 5.594583 	 6.670714 	 -5.291004 
H 	 4.055977 	 0.393016 	 -5.785151 
H 	 3.766028 	 0.141280 	 -4.253650 
H 	 1.364078 	 -3.214798 	 1.946482 
H 	 1.175249 	 -4.365255 	 1.136158 
H 	 5.142395 	 -0.856186 	 0.200512 
H 	 4.073685 	 -1.467638 	 1.173375 
H 	 -6.554711 	 -5.270038 	 7.416039 
H 	 -7.495132 	 -5.483192 	 -6.403247 
H 	 0.285132 	 -2.450489 	 -6.105845 
H 	 0.579963 	 -2.467863 	 7.172200 
H 	 -0.325750 	 -6.837548 	 -6.848805 
H 	 -0.346922 	 7.102677 	 -5.606965 
H 	 0.627931 	 0.406488 	 1.602791 
H 	 2.112413 	 -0.044212 	 1.963692 
H 	 2.253462 	 -6.432432 	 2.375233 
H 	 2.006227 	 7.081977 	 1.560452 
H 	 -2.922916 	 0.320796 	 1.360533 
H 	 -3.965288 	 1.488785 	 1.512321 
H 	 -4.053474 	 -5.949865 	 -6.828944 
H 	 -2.802673 	 -6.820695 	 -7.178425 
H 	 1.178938 	 3.583473 	 5.652513 
H 	 1.068131 	 5.080509 	 5.727907 
H 	 -1.070298 	 -5.709356 	 3.590674 
H 	 -0.295054 	 -4.439508 	 3.908503 
H 	 -6.337881 	 -2.977189 	 -3.315953 
H 	 -5.112521 	 -3.468516 	 -2.372620 
H 	 -0.410334 	 1.779633 	 -3.289063 
H 	 -1.893876 	 1.830019 	 -2.733708 
H 	 4.945746 	 5.476072 	 -1.115126 
H 	 4.426132 	 5.953588 	 0.318844 
H 	 -0.296854 	 3.086350 	 0.007165 
H 	 -1.215291 	 3.221686 	 1.282688 
H 	 -0.231647 	 5.869780 	 0.187818 
H 	 -1.682774 	 5.731933 	 -0.382454 
H 	 6.315805 	 0.847245 	 2.990067 
H 	 5.133431 	 1.647054 	 2.391622 
H 	 6.539465 	 3.182983 	 6.911270 
H 	 6.556513 	 3.706912 	 -6.583246 
H 	 -4.026013 	 -3.672916 	 2.493503 
H 	 -5.082614 	 -4.396750 	 3.389372 
H 	 2.297877 	 4.910398 	 1.737631 
H 	 1.896481 	 4.990223 	 0.231787 
H 	 0.498474 	 -0.685119 	 5.936968 
H 	 1.979421 	 -1.266128 	 5.909975 
H 	 -5.308847 	 0.448242 	 -4.650146 
H 	 -6.601185 	 0.931429 	 -4.015231 
H 	 -0.972998 	 -0.194690 	 0.108023 
H 	 -1.189621 	 -1.320834 	 1.183029 
H 	 0.177772 	 7.437887 	 -3.310245 
H 	 -0.595011 	 7.109515 	 -1.928807 
H 	 -3.575516 	 2.515857 	 -1.323184 
H 	 -2.141211 	 3.332958 	 -1.312547 
H 	 -5.793371 	 0.090133 	 2.534315 
H 	 -6.831341 	 -1.062141 	 2.789362 
H 	 4.582241 	 -4.930216 	 -0.618893 
H 	 4.269665 	 -6.412743 	 -0.566603 
H 	 7.151283 	 -1.520298 	 6.372205 
H 	 -7.325653 	 -1.070418 	 4.804634 
H 	 -7.096227 	 -3.893894 	 4.731707 
H 	 -6.923272 	 -5.382838 	 4.615651 
H 	 -6.330610 	 -0.510381 	 -7.175491 
H 	 -7.276298 	 -1.564887 	 -6.390925 
H 	 3.329813 	 4.549431 	 4.277445 
H 	 2.293803 	 3.361569 	 3.877651 
H 	 5.917818 	 -2.817980 	 3.435591 
H 	 6.964757 	 -3.685355 	 2.738931 
H 	 6.648351 	 3.664117 	 -1.102850 
H 	 -7.466164 	 4.037966 	 0.183426 
H 	 -0.083436 	 5.033494 	 -3.800595 
H 	 -1.291788 	 5.924330 	 -4.155250 
H 	 -4.525957 	 -2.547857 	 5.761498 
H 	 -4.418062 	 -2.395504 	 4.268658 
H 	 7.381737 	 4.153708 	 2.260594 
H 	 -6.886828 	 5.629859 	 2.019463 
H 	 4.082878 	 -5.581597 	 1.740349 
H 	 4.077233 	 -4.562281 	 2.847371 
H 	 -7.263540 	 -3.743033 	 0.123609 
H 	 6.709859 	 -2.883622 	 -0.763627 
H 	 4.291280 	 -0.310999 	 2.994942 
H 	 3.848149 	 -1.701296 	 3.447822 
H 	 -0.740419 	 -1.659576 	 -4.411889 
H 	 -0.122125 	 -0.409696 	 -5.149766 
H 	 1.111744 	 -3.209945 	 -1.783929 
H 	 1.503723 	 -2.766842 	 -0.340237 
H 	 0.556651 	 4.153401 	 -1.867986 
H 	 1.390712 	 3.509599 	 -3.081372 
H 	 0.217441 	 -6.442545 	 1.192379 
H 	 -0.351197 	 -5.908793 	 -0.223874 
H 	 1.482112 	 2.114921 	 0.563402 
H 	 2.017336 	 2.249544 	 -0.809063 
H 	 -0.939095 	 -2.269087 	 3.750533 
H 	 0.378157 	 -2.540349 	 4.363444 
H 	 4.256755 	 1.953154 	 4.699204 
H 	 0.328150 	 1.144678 	 -6.926707 
H 	 -2.845852 	 -6.143171 	 -0.048991 
H 	 -3.380378 	 7.255491 	 -0.007713 
H 	 -7.113924 	 -6.502974 	 1.475167 
H 	 6.629468 	 -5.817884 	 0.695031 
H 	 5.730235 	 0.919549 	 -2.552797 
H 	 5.821453 	 0.886390 	 -4.062110 
H 	 2.111932 	 7.161685 	 6.491623 
H 	 2.204009 	 -7.176956 	 4.938312 
H 	 0.709064 	 2.080502 	 -5.761254 
O 	 -4.482931 	 7.222632 	 4.964730 
O 	 7.396932 	 3.540437 	 -4.989530 
O 	 -2.693239 	 6.401943 	 -3.361915 
O 	 -6.582445 	 7.199883 	 2.895266 
O 	 -3.621139 	 5.525581 	 -0.028276 
O 	 -5.532713 	 4.845953 	 -2.078478 
O 	 -1.264165 	 3.018078 	 3.457121 
O 	 -3.517552 	 -1.523014 	 -2.110427 
O 	 -1.348258 	 4.486753 	 -6.781442 
O 	 -2.302961 	 -3.785649 	 -1.251966 
O 	 5.924773 	 -7.097832 	 4.431922 
O 	 -0.852882 	 -0.685363 	 -1.512627 
O 	 4.867920 	 -3.424984 	 -1.430820 
O 	 -5.422982 	 -0.762860 	 -0.109689 
O 	 2.400177 	 -7.400453 	 -6.513439 
O 	 -5.602117 	 -7.297194 	 -1.915716 
O 	 5.324669 	 4.380469 	 -2.660509 
O 	 -2.921586 	 1.703718 	 -6.038795 
O 	 -0.172022 	 0.730675 	 6.362223 
O 	 3.339500 	 -0.087317 	 7.515352 
O 	 0.258684 	 -5.659726 	 6.732802 
O 	 4.294712 	 -2.787525 	 -7.232719 
O 	 -5.104114 	 4.236898 	 4.700853 
O 	 -2.800953 	 -6.609564 	 3.111571 
O 	 4.377883 	 3.011255 	 1.317939 
O 	 3.148964 	 -6.982175 	 -2.522238 
O 	 0.550936 	 -4.333324 	 -3.187337 
O 	 3.039031 	 -5.345760 	 5.806447 
O 	 -4.560910 	 -4.031287 	 -5.424289 
O 	 -5.485592 	 1.357735 	 7.031583 
O 	 6.509737 	 6.827837 	 -3.611873 
O 	 -5.110603 	 1.777802 	 -0.835252 
O 	 -6.619640 	 5.910712 	 7.137027 
O 	 -4.272437 	 -1.006718 	 -4.986726 
O 	 -3.877327 	 3.491660 	 2.013540 
O 	 6.860949 	 4.011883 	 4.229811 
O 	 -3.041213 	 2.768555 	 5.795826 
O 	 3.632841 	 4.186610 	 -7.109729 
O 	 3.161520 	 1.068711 	 -1.505632 
O 	 7.136449 	 -1.892082 	 -4.087927 
O 	 2.395424 	 -4.807384 	 -5.249711 
O 	 6.541320 	 0.327652 	 -0.014495 
O 	 -2.214665 	 -3.333401 	 1.491735 
O 	 -5.917293 	 7.210859 	 -4.760737 
O 	 2.613596 	 -1.113964 	 -3.519021 
O 	 4.576397 	 5.443961 	 5.345309 
O 	 -2.758988 	 -5.776355 	 -4.350840 
O 	 -1.627374 	 -3.016800 	 -4.142683 
O 	 1.100982 	 2.062475 	 4.520317 
O 	 -1.966417 	 -0.559044 	 4.354945 
O 	 -1.078832 	 6.016481 	 2.654132 
O 	 5.032650 	 -3.724645 	 -4.773595 
O 	 7.005122 	 1.498610 	 5.805582 
O 	 4.592812 	 -2.829272 	 4.573127 
O 	 3.139884 	 3.230012 	 -4.265743 
O 	 7.029383 	 -5.963803 	 -2.000626 
O 	 -4.002610 	 4.936321 	 -6.626125 
O 	 5.238034 	 -5.965855 	 7.325515 
O 	 5.228650 	 6.572387 	 -6.233645 
O 	 4.237022 	 0.765908 	 -4.866774 
O 	 1.879953 	 -3.661120 	 1.197607 
O 	 4.314828 	 -1.369033 	 0.200298 
O 	 -6.521653 	 -5.632649 	 -6.578314 
O 	 0.675431 	 -2.993272 	 -6.889599 
O 	 -0.853345 	 -7.104031 	 -6.051702 
O 	 1.552791 	 0.696953 	 1.591218 
O 	 1.627671 	 -6.924828 	 1.805061 
O 	 -3.838055 	 0.543803 	 1.742739 
O 	 -3.645845 	 -6.505840 	 7.355513 
O 	 0.883918 	 4.269862 	 6.291736 
O 	 -0.181574 	 -5.444763 	 3.867722 
O 	 -5.798641 	 -3.728968 	 -3.060088 
O 	 -1.285569 	 1.310052 	 -3.384093 
O 	 4.964940 	 6.243518 	 -0.480759 
O 	 -1.247599 	 3.193388 	 0.302990 
O 	 -0.748466 	 5.746395 	 -0.628495 
O 	 5.397887 	 1.042671 	 3.140789 
O 	 6.442787 	 3.997821 	 7.417613 
O 	 -4.973356 	 -3.566656 	 2.823939 
O 	 2.172745 	 5.499434 	 0.989253 
O 	 1.052583 	 -1.476192 	 5.701800 
O 	 -5.864794 	 1.267979 	 -4.597542 
O 	 -1.180538 	 -0.361440 	 1.088042 
O 	 0.022132 	 -7.145490 	 -2.362634 
O 	 -2.861095 	 2.898587 	 -1.904506 
O 	 -6.605771 	 -0.134693 	 3.013493 
O 	 4.867659 	 -5.757857 	 -0.112523 
O 	 6.871220 	 -1.196934 	 5.483155 
O 	 -6.808531 	 -4.664919 	 5.268398 
O 	 -6.676787 	 -1.437550 	 -7.140683 
O 	 2.708670 	 4.211530 	 3.544613 
O 	 6.894761 	 -2.850297 	 3.221362 
O 	 7.397122 	 3.383321 	 -0.542053 
O 	 -0.330025 	 5.670347 	 -4.517903 
O 	 -4.252042 	 -1.942893 	 5.079476 
O 	 -7.158669 	 4.766303 	 1.612554 
O 	 4.074867 	 -5.532809 	 2.705863 
O 	 -7.306417 	 -2.877893 	 -0.314599 
O 	 3.638749 	 -1.020212 	 2.773609 
O 	 0.083446 	 -1.270401 	 -4.798920 
O 	 1.412299 	 -2.440805 	 -1.291940 
O 	 0.541484 	 3.676785 	 -2.709977 
O 	 -0.602856 	 -6.011010 	 0.693958 
O 	 1.593528 	 2.814740 	 -0.106836 
O 	 -0.156529 	 -2.784307 	 3.599539 
O 	 3.669273 	 1.998304 	 5.495368 
O 	 -3.666737 	 -6.698952 	 -0.018394 
O 	 -7.357309 	 -5.631780 	 1.078290 
O 	 6.384705 	 0.800429 	 -3.234733 
O 	 2.183084 	 6.940527 	 5.544323 
O 	 0.717421 	 1.130778 	 -6.014277 
K 	 -4.346350 	 3.791556 	 -4.378134 
