333
conformation = 1
H 	 2.447166 	 13.714650 	 12.466900 
H 	 3.192612 	 0.155026 	 13.154743 
H 	 14.057309 	 11.114850 	 2.958306 
H 	 14.825527 	 9.901118 	 2.494418 
H 	 4.908421 	 13.906852 	 5.269923 
H 	 4.609630 	 14.587606 	 3.875417 
H 	 0.118014 	 14.740460 	 10.882311 
H 	 1.597402 	 14.811514 	 11.209892 
H 	 3.672544 	 12.211596 	 8.020903 
H 	 3.259348 	 12.626301 	 6.547825 
H 	 1.214462 	 11.888061 	 5.898972 
H 	 1.712673 	 13.188280 	 5.271284 
H 	 7.112258 	 10.166641 	 10.861398 
H 	 6.452105 	 11.627079 	 10.575324 
H 	 3.234926 	 6.307230 	 5.940924 
H 	 4.743009 	 6.266211 	 5.474174 
H 	 6.883664 	 11.902879 	 14.828744 
H 	 6.474916 	 12.524900 	 1.213533 
H 	 4.785491 	 4.066596 	 5.575729 
H 	 6.024610 	 3.195448 	 5.866012 
H 	 13.038706 	 14.674781 	 12.176331 
H 	 12.723750 	 0.941692 	 11.196249 
H 	 7.198198 	 6.021125 	 5.854145 
H 	 6.714932 	 7.376353 	 5.170433 
H 	 12.003723 	 4.115332 	 5.062745 
H 	 11.747576 	 4.761740 	 6.578377 
H 	 1.340977 	 5.577066 	 7.332762 
H 	 2.380182 	 6.482005 	 8.265818 
H 	 10.892882 	 14.665330 	 1.400084 
H 	 9.637570 	 0.699083 	 1.418128 
H 	 0.970710 	 0.240303 	 5.517759 
H 	 2.343529 	 0.324269 	 6.202578 
H 	 13.029940 	 12.708115 	 4.239269 
H 	 11.923502 	 11.459712 	 4.143495 
H 	 5.056801 	 8.861645 	 2.123574 
H 	 3.789170 	 8.252521 	 1.521833 
H 	 7.816325 	 8.767870 	 12.886545 
H 	 6.414986 	 8.131799 	 13.003698 
H 	 9.652635 	 7.688904 	 0.331939 
H 	 10.712780 	 8.107788 	 14.140239 
H 	 7.318438 	 1.981049 	 13.020275 
H 	 7.642722 	 2.680182 	 14.438589 
H 	 11.061881 	 5.363117 	 14.775980 
H 	 11.185768 	 3.866388 	 14.568444 
H 	 2.688057 	 11.269922 	 12.672950 
H 	 1.214860 	 11.647650 	 12.110000 
H 	 4.160752 	 0.816060 	 9.425492 
H 	 3.918841 	 0.424568 	 10.881408 
H 	 11.452793 	 10.786930 	 8.056287 
H 	 10.968118 	 10.844973 	 9.539819 
H 	 10.938957 	 14.439043 	 4.937765 
H 	 9.708742 	 0.412126 	 4.788527 
H 	 8.529332 	 2.841778 	 3.435791 
H 	 7.631515 	 2.068428 	 4.534320 
H 	 11.094932 	 1.636977 	 13.776821 
H 	 9.617192 	 2.018511 	 13.395169 
H 	 2.307888 	 3.285352 	 1.239256 
H 	 2.293755 	 3.657953 	 2.744886 
H 	 2.571620 	 8.913376 	 13.932398 
H 	 2.269011 	 9.356499 	 0.462921 
H 	 13.741472 	 0.166454 	 4.186448 
H 	 14.630438 	 13.959397 	 3.471439 
H 	 2.143589 	 8.214955 	 6.391322 
H 	 1.407529 	 9.665841 	 6.333066 
H 	 0.768429 	 13.730693 	 0.507223 
H 	 0.459474 	 12.782485 	 14.279928 
H 	 3.381234 	 5.576044 	 2.170891 
H 	 3.638021 	 6.373219 	 3.408013 
H 	 4.011449 	 10.775983 	 10.157191 
H 	 2.489876 	 11.160790 	 9.900943 
H 	 14.113421 	 10.434920 	 11.804944 
H 	 13.491097 	 11.802936 	 12.033699 
H 	 4.707129 	 10.341950 	 14.082544 
H 	 5.104663 	 10.305918 	 12.590190 
H 	 10.032168 	 11.397752 	 14.830686 
H 	 11.545639 	 10.952818 	 0.055175 
H 	 10.283718 	 8.066508 	 6.695668 
H 	 10.413857 	 7.752739 	 5.138194 
H 	 14.447799 	 6.746651 	 3.481153 
H 	 13.811011 	 5.378592 	 3.326026 
H 	 9.086145 	 3.208915 	 1.245076 
H 	 10.330787 	 3.274850 	 2.269039 
H 	 13.946802 	 8.930271 	 7.376759 
H 	 14.718815 	 7.594081 	 7.611962 
H 	 4.956458 	 4.418679 	 7.883845 
H 	 5.660160 	 3.530071 	 8.929928 
H 	 1.847632 	 14.799782 	 3.235752 
H 	 1.323807 	 0.353603 	 1.903275 
H 	 10.221422 	 5.555731 	 4.794276 
H 	 9.371056 	 6.091838 	 3.616678 
H 	 12.206336 	 12.617168 	 13.763149 
H 	 11.143284 	 13.419373 	 13.108007 
H 	 3.810754 	 2.053853 	 2.688196 
H 	 5.202404 	 1.364100 	 1.985417 
H 	 6.328840 	 3.832236 	 3.706341 
H 	 5.140448 	 3.730548 	 2.624140 
H 	 10.039464 	 9.414935 	 12.643051 
H 	 8.762640 	 8.873775 	 11.114895 
H 	 4.792027 	 6.283449 	 12.297931 
H 	 4.605419 	 7.377114 	 11.267230 
H 	 7.149060 	 13.913621 	 10.009943 
H 	 5.710942 	 13.818151 	 10.593086 
H 	 12.911153 	 3.088350 	 2.163670 
H 	 12.308604 	 4.322229 	 1.921516 
H 	 14.204689 	 8.126288 	 13.123334 
H 	 0.533928 	 8.973029 	 13.648018 
H 	 12.568893 	 5.087766 	 12.440016 
H 	 11.510118 	 4.049643 	 12.687502 
H 	 10.741808 	 9.824538 	 3.019028 
H 	 10.368139 	 10.938473 	 1.932347 
H 	 14.865613 	 2.346080 	 5.558038 
H 	 13.581450 	 1.532735 	 6.166557 
H 	 2.941292 	 12.688576 	 14.899082 
H 	 4.438534 	 12.334733 	 0.332026 
H 	 12.915914 	 0.499784 	 0.022881 
H 	 13.084772 	 1.542615 	 13.710491 
H 	 12.422550 	 12.970545 	 1.239966 
H 	 13.012671 	 14.168014 	 2.079417 
H 	 11.521808 	 7.959994 	 1.504382 
H 	 11.023208 	 7.261801 	 2.819825 
H 	 8.408140 	 3.926195 	 9.002836 
H 	 9.047923 	 2.650443 	 8.533401 
H 	 12.386189 	 6.665607 	 7.419761 
H 	 11.500036 	 5.967032 	 8.558231 
H 	 1.281816 	 1.587218 	 14.686044 
H 	 0.019597 	 2.048492 	 0.262324 
H 	 7.884730 	 4.831553 	 1.179112 
H 	 8.280154 	 4.812030 	 14.534864 
H 	 6.976964 	 1.160810 	 0.504281 
H 	 7.141965 	 14.810383 	 1.397350 
H 	 8.037051 	 7.662087 	 8.703455 
H 	 9.482405 	 7.662977 	 9.474890 
H 	 9.902169 	 0.965102 	 9.455669 
H 	 9.265914 	 0.123662 	 8.409575 
H 	 4.544340 	 7.609289 	 8.599676 
H 	 3.378749 	 8.543903 	 8.682385 
H 	 3.330702 	 1.366119 	 0.539034 
H 	 4.320912 	 0.315930 	 0.043904 
H 	 7.921382 	 11.069280 	 12.978259 
H 	 8.430774 	 12.577943 	 13.313209 
H 	 6.250614 	 1.711681 	 10.981556 
H 	 6.927594 	 2.980155 	 11.301600 
H 	 0.961486 	 4.284803 	 4.230544 
H 	 2.352826 	 4.102217 	 5.022326 
H 	 6.610335 	 9.511716 	 3.836199 
H 	 5.290602 	 9.158146 	 4.571747 
H 	 12.433721 	 12.799097 	 6.220517 
H 	 12.193871 	 13.127500 	 7.711731 
H 	 7.072302 	 10.178116 	 7.427415 
H 	 6.074097 	 10.429616 	 8.608816 
H 	 7.292269 	 12.960636 	 7.433703 
H 	 5.952741 	 12.596978 	 6.778024 
H 	 13.642772 	 8.194295 	 10.582956 
H 	 12.705619 	 9.269083 	 9.961010 
H 	 14.360271 	 10.561699 	 14.340349 
H 	 14.063769 	 11.231284 	 0.775940 
H 	 3.429678 	 4.204111 	 9.641737 
H 	 2.793411 	 2.945055 	 10.505171 
H 	 9.761700 	 12.709712 	 9.362885 
H 	 9.468040 	 11.960049 	 7.971821 
H 	 7.925849 	 6.750566 	 13.357036 
H 	 9.170536 	 6.083332 	 12.699144 
H 	 1.900015 	 8.024441 	 2.875959 
H 	 0.880612 	 8.670782 	 3.837953 
H 	 6.430596 	 7.035803 	 7.630926 
H 	 6.379685 	 6.179305 	 8.865337 
H 	 7.046923 	 14.633742 	 4.293479 
H 	 7.642325 	 14.640496 	 5.677714 
H 	 3.575465 	 9.849110 	 5.792279 
H 	 4.948686 	 10.281277 	 6.309283 
H 	 1.459510 	 7.360933 	 10.784413 
H 	 0.662431 	 6.216577 	 10.041147 
H 	 11.852617 	 2.277884 	 6.601382 
H 	 11.696998 	 0.690964 	 6.655145 
H 	 14.734372 	 6.037549 	 13.354555 
H 	 14.514352 	 6.244654 	 11.783866 
H 	 0.390740 	 3.076741 	 11.983669 
H 	 0.271789 	 1.651080 	 12.532378 
H 	 1.569494 	 6.717686 	 0.196494 
H 	 0.700386 	 5.915678 	 1.197656 
H 	 10.691478 	 11.674779 	 11.741547 
H 	 9.395299 	 11.030633 	 11.109874 
H 	 13.470967 	 4.045489 	 10.575206 
H 	 14.589147 	 3.824008 	 9.576497 
H 	 13.912376 	 11.028291 	 6.100463 
H 	 14.625457 	 11.306104 	 7.539383 
H 	 7.284065 	 12.411154 	 3.238192 
H 	 5.903720 	 13.140048 	 3.445677 
H 	 3.228723 	 4.897789 	 13.070729 
H 	 2.924962 	 4.862295 	 11.577486 
H 	 14.866668 	 11.984723 	 9.911572 
H 	 0.786611 	 12.966139 	 9.050678 
H 	 12.034874 	 2.123941 	 9.381393 
H 	 11.337000 	 2.580419 	 10.802073 
H 	 0.187859 	 3.537328 	 7.230803 
H 	 13.986965 	 4.456790 	 6.609170 
H 	 11.662192 	 7.233249 	 10.471477 
H 	 11.056944 	 5.849632 	 10.773331 
H 	 6.726460 	 5.921806 	 2.996656 
H 	 7.478208 	 7.099610 	 2.300781 
H 	 8.413313 	 4.199459 	 5.469729 
H 	 8.853021 	 4.634035 	 6.880575 
H 	 7.864841 	 11.304686 	 5.409142 
H 	 8.944356 	 10.931994 	 4.252735 
H 	 7.409903 	 1.260614 	 8.423606 
H 	 7.198359 	 1.373594 	 6.914187 
H 	 9.032728 	 9.609745 	 7.831725 
H 	 9.644383 	 9.978326 	 6.481555 
H 	 6.389579 	 5.326492 	 10.766449 
H 	 7.483208 	 5.280085 	 11.813538 
H 	 11.456144 	 8.803154 	 12.526394 
H 	 7.783374 	 8.665662 	 0.329539 
H 	 4.547034 	 1.066864 	 7.082338 
H 	 3.801684 	 14.689446 	 7.448239 
H 	 0.641994 	 1.690382 	 8.964244 
H 	 14.488321 	 1.070952 	 8.121606 
H 	 13.736274 	 7.973719 	 5.083507 
H 	 12.931587 	 8.294451 	 3.897198 
H 	 9.436645 	 14.633234 	 13.860090 
H 	 9.280396 	 0.047604 	 12.323335 
H 	 8.658668 	 9.354768 	 1.458029 
O 	 2.925962 	 14.544305 	 12.341860 
O 	 14.703720 	 10.844965 	 2.252460 
O 	 4.535187 	 13.735558 	 4.380732 
O 	 0.984622 	 14.707103 	 10.460102 
O 	 3.888560 	 12.798100 	 7.264743 
O 	 1.887656 	 12.202504 	 5.305190 
O 	 6.255278 	 10.669058 	 10.743473 
O 	 3.843185 	 6.009098 	 5.225669 
O 	 6.113898 	 11.921324 	 0.578656 
O 	 5.190307 	 3.464591 	 6.248746 
O 	 13.432757 	 0.582638 	 11.790004 
O 	 6.543970 	 6.772966 	 5.929297 
O 	 12.114109 	 3.973726 	 6.012058 
O 	 1.949111 	 6.364435 	 7.406994 
O 	 9.964542 	 14.739852 	 1.129231 
O 	 1.876771 	 14.884733 	 5.415318 
O 	 12.697404 	 11.875698 	 4.601740 
O 	 4.390071 	 8.996462 	 1.429620 
O 	 7.214283 	 8.216586 	 13.495174 
O 	 10.445854 	 7.306499 	 14.776744 
O 	 7.858193 	 1.918548 	 13.850843 
O 	 11.711916 	 4.612602 	 14.781697 
O 	 2.170636 	 11.655665 	 11.984272 
O 	 4.536425 	 0.911703 	 10.315054 
O 	 11.618907 	 10.465731 	 8.963868 
O 	 10.687134 	 0.514843 	 4.855765 
O 	 7.922484 	 3.001283 	 4.232531 
O 	 10.555247 	 2.221379 	 13.170298 
O 	 2.919968 	 3.602099 	 1.951669 
O 	 2.009924 	 8.687998 	 14.725102 
O 	 13.723137 	 14.224589 	 3.744948 
O 	 2.288967 	 9.171199 	 6.476490 
O 	 1.102548 	 13.492396 	 14.515382 
O 	 3.229257 	 6.487438 	 2.501409 
O 	 3.301786 	 10.764660 	 9.454254 
O 	 14.242728 	 11.369958 	 11.550619 
O 	 4.333351 	 10.113559 	 13.201736 
O 	 10.817912 	 11.420107 	 0.490786 
O 	 10.680052 	 8.425515 	 5.818911 
O 	 14.696810 	 5.782178 	 3.287061 
O 	 9.519332 	 2.758475 	 1.978173 
O 	 13.844147 	 7.997384 	 7.315033 
O 	 5.193851 	 4.373213 	 8.822856 
O 	 1.401436 	 14.446110 	 2.455314 
O 	 10.254412 	 6.192367 	 4.016285 
O 	 11.936789 	 12.918394 	 12.854335 
O 	 4.657978 	 1.562480 	 2.831156 
O 	 5.646499 	 4.324812 	 3.172201 
O 	 8.596348 	 9.493846 	 11.846020 
O 	 5.351128 	 6.849277 	 11.635650 
O 	 6.409307 	 13.290332 	 10.132708 
O 	 12.345483 	 3.668892 	 2.687845 
O 	 14.558623 	 9.027436 	 13.202315 
O 	 11.845356 	 4.573143 	 11.914854 
O 	 10.407906 	 10.772165 	 2.982793 
O 	 14.268136 	 1.596189 	 5.425631 
O 	 3.515977 	 12.156750 	 0.614535 
O 	 12.863676 	 1.467821 	 14.678891 
O 	 12.636630 	 13.925731 	 1.183901 
O 	 11.469091 	 8.095342 	 2.456743 
O 	 9.193516 	 3.623853 	 8.439974 
O 	 11.742685 	 6.004071 	 7.593679 
O 	 0.941715 	 1.892284 	 0.643015 
O 	 8.081730 	 4.256740 	 0.409665 
O 	 6.479358 	 0.483506 	 1.002252 
O 	 8.861982 	 8.220686 	 8.911772 
O 	 9.033278 	 0.573821 	 9.233682 
O 	 3.652346 	 7.654053 	 8.998624 
O 	 3.671672 	 0.966398 	 14.606465 
O 	 8.068815 	 11.726176 	 13.720528 
O 	 7.107657 	 2.019760 	 11.309365 
O 	 1.720487 	 3.690403 	 4.366326 
O 	 5.918217 	 8.790691 	 3.893777 
O 	 12.549614 	 13.554372 	 6.864862 
O 	 6.162219 	 10.528040 	 7.637865 
O 	 6.682522 	 13.236960 	 6.717003 
O 	 12.781297 	 8.581145 	 10.689534 
O 	 13.824221 	 11.298371 	 14.677751 
O 	 2.634865 	 3.835958 	 10.100419 
O 	 9.682257 	 12.833898 	 8.392043 
O 	 8.310376 	 5.866077 	 13.108079 
O 	 1.482988 	 8.898558 	 3.081119 
O 	 6.380185 	 7.109443 	 8.615172 
O 	 7.432137 	 0.396352 	 4.962982 
O 	 4.433736 	 10.264124 	 5.469183 
O 	 0.648225 	 7.173051 	 10.289640 
O 	 12.126972 	 1.484339 	 7.059239 
O 	 14.060929 	 6.205951 	 12.664993 
O 	 0.777127 	 2.474418 	 12.685056 
O 	 0.861306 	 6.053439 	 0.254459 
O 	 10.061566 	 11.748528 	 10.958262 
O 	 14.458828 	 4.202789 	 10.452264 
O 	 14.633697 	 10.745380 	 6.689724 
O 	 6.764378 	 13.256049 	 3.062726 
O 	 3.098748 	 5.508968 	 12.342751 
O 	 0.353157 	 12.080065 	 8.996616 
O 	 11.667452 	 1.857754 	 10.232878 
O 	 0.008174 	 4.438950 	 6.972965 
O 	 10.968350 	 6.584059 	 10.141426 
O 	 7.592465 	 6.214850 	 2.582450 
O 	 8.626244 	 5.004961 	 6.009140 
O 	 7.997165 	 11.052364 	 4.469062 
O 	 6.749209 	 1.508782 	 7.760586 
O 	 9.062773 	 10.388676 	 7.164871 
O 	 7.086796 	 4.748978 	 11.036060 
O 	 10.944181 	 9.346261 	 13.176105 
O 	 3.652538 	 0.762921 	 7.388382 
O 	 0.006988 	 1.961484 	 8.278621 
O 	 13.833208 	 8.220326 	 4.166509 
O 	 9.454949 	 14.243752 	 12.995334 
O 	 8.313895 	 8.480695 	 1.137599 
K 	 3.103827 	 11.271020 	 2.994032 
