333
conformation = 3
H 	 253.525133 	 -228.770335 	 0.657057 
H 	 254.261986 	 -227.419986 	 1.329937 
H 	 -234.889140 	 -231.362824 	 6.024723 
H 	 -234.047479 	 -232.535126 	 5.531748 
H 	 255.966635 	 -228.556457 	 -6.603390 
H 	 255.667620 	 -227.868500 	 6.966159 
H 	 -233.916205 	 -227.755194 	 -0.905918 
H 	 252.693556 	 -227.657702 	 -0.657438 
H 	 254.744274 	 -230.245579 	 -3.813942 
H 	 254.294127 	 -229.835432 	 -5.276622 
H 	 252.274856 	 -230.584764 	 -5.911616 
H 	 252.771451 	 -229.287944 	 -6.528441 
H 	 258.196930 	 -232.321654 	 -0.966002 
H 	 257.554903 	 -230.864741 	 -1.238039 
H 	 254.294178 	 263.784756 	 -5.907722 
H 	 255.802840 	 263.834494 	 -6.378918 
H 	 257.968493 	 -230.545065 	 2.994427 
H 	 257.533696 	 -229.917058 	 4.253019 
H 	 255.832022 	 261.612221 	 -6.244047 
H 	 257.101125 	 260.732910 	 -5.960467 
H 	 -235.911164 	 -227.782527 	 0.342379 
H 	 -236.232238 	 -226.634844 	 -0.608594 
H 	 258.276357 	 263.526579 	 -5.957492 
H 	 257.757662 	 264.895892 	 -6.666529 
H 	 -236.937491 	 261.658398 	 -6.754904 
H 	 -237.186774 	 262.277221 	 -5.245494 
H 	 252.430663 	 263.131701 	 -4.501917 
H 	 253.449879 	 264.070959 	 -3.575620 
H 	 -238.043126 	 -227.811162 	 4.439142 
H 	 -239.296672 	 -226.851576 	 4.510306 
H 	 -233.053356 	 -227.287765 	 -6.321120 
H 	 253.394724 	 -227.242789 	 -5.603029 
H 	 -235.909236 	 -229.742251 	 7.273731 
H 	 -236.958823 	 -231.004736 	 7.225066 
H 	 256.162830 	 266.418949 	 5.178382 
H 	 254.851037 	 265.790091 	 4.587366 
H 	 258.863289 	 266.304538 	 1.043322 
H 	 257.480172 	 265.636586 	 1.174369 
H 	 -239.277068 	 265.205945 	 3.368492 
H 	 -238.199391 	 265.645544 	 2.294089 
H 	 258.406256 	 -225.560261 	 1.189841 
H 	 258.729285 	 260.196865 	 2.618884 
H 	 -237.893829 	 262.900366 	 2.960243 
H 	 -237.740620 	 261.372612 	 2.724685 
H 	 253.740253 	 -231.192389 	 0.850826 
H 	 252.263679 	 -230.807020 	 0.261498 
H 	 255.214878 	 -226.804580 	 -2.408257 
H 	 255.014326 	 -227.141131 	 -0.924212 
H 	 -237.486880 	 -231.692376 	 -3.784767 
H 	 -237.996892 	 -231.618082 	 -2.309136 
H 	 -238.015538 	 -228.022485 	 -6.868134 
H 	 -239.203862 	 -227.139398 	 -7.088300 
H 	 -240.412273 	 260.361544 	 6.527663 
H 	 258.724582 	 259.611085 	 -7.339105 
H 	 -237.873494 	 -225.950368 	 1.961433 
H 	 -239.298201 	 -225.562356 	 1.551076 
H 	 253.410773 	 260.805543 	 4.300309 
H 	 253.343901 	 261.199073 	 5.809777 
H 	 253.604241 	 266.422804 	 2.084470 
H 	 253.320219 	 -233.110568 	 3.525217 
H 	 -235.163646 	 -227.369106 	 7.270659 
H 	 -234.298569 	 -228.500283 	 6.538551 
H 	 253.227072 	 265.748861 	 -5.474072 
H 	 252.480260 	 -232.810031 	 -5.484641 
H 	 -233.280902 	 -228.762742 	 3.564882 
H 	 -233.581432 	 -229.702205 	 2.457026 
H 	 254.399725 	 263.100981 	 5.222127 
H 	 254.683308 	 263.901056 	 6.438477 
H 	 255.071586 	 -231.702584 	 -1.706181 
H 	 253.572949 	 -231.324741 	 -1.895492 
H 	 -234.830188 	 -231.983491 	 -0.046976 
H 	 -235.440048 	 -230.668629 	 0.159105 
H 	 255.800482 	 -232.151380 	 2.271812 
H 	 256.179998 	 -232.127581 	 0.754133 
H 	 -238.891766 	 -231.057912 	 2.990484 
H 	 -237.395061 	 -231.535524 	 3.108948 
H 	 -238.661413 	 265.626221 	 -5.177309 
H 	 -238.548893 	 265.272713 	 -6.699316 
H 	 -234.464835 	 264.280108 	 6.514596 
H 	 -235.161390 	 262.942104 	 6.390075 
H 	 -239.852171 	 260.759165 	 4.291261 
H 	 -238.582973 	 260.758736 	 5.349593 
H 	 -234.966532 	 266.461028 	 -4.434775 
H 	 -234.245549 	 265.118422 	 -4.223974 
H 	 256.057686 	 261.966370 	 -3.926416 
H 	 256.712885 	 261.059537 	 -2.893156 
H 	 252.922081 	 -227.635076 	 6.303576 
H 	 252.404706 	 -227.225657 	 4.935685 
H 	 -238.720963 	 263.095038 	 -7.042584 
H 	 -239.579760 	 263.611612 	 6.697530 
H 	 -236.732989 	 -229.816445 	 1.901225 
H 	 -237.811869 	 -229.041964 	 1.237751 
H 	 254.891782 	 259.575688 	 5.794889 
H 	 256.244467 	 -226.182666 	 5.064289 
H 	 257.405425 	 261.358884 	 6.755329 
H 	 256.199483 	 261.263410 	 5.708737 
H 	 -238.879958 	 -233.062014 	 0.784997 
H 	 -240.160503 	 266.423454 	 -0.732501 
H 	 255.861817 	 263.806430 	 0.410611 
H 	 255.694398 	 264.889642 	 -0.558683 
H 	 258.214923 	 -228.549036 	 -1.831590 
H 	 256.759969 	 -228.652146 	 -1.269509 
H 	 -235.999503 	 260.562773 	 5.220729 
H 	 -236.656210 	 261.856876 	 4.995178 
H 	 -234.742946 	 265.689599 	 1.281594 
H 	 -233.472298 	 266.473665 	 1.833521 
H 	 -236.382576 	 262.594241 	 0.590222 
H 	 -237.433588 	 261.580257 	 0.851746 
H 	 -238.206748 	 -232.649756 	 6.064710 
H 	 -238.544108 	 -231.507386 	 5.017477 
H 	 -234.069456 	 259.843288 	 -6.271739 
H 	 -235.321786 	 -226.043926 	 -5.690271 
H 	 254.052066 	 -229.789948 	 3.093216 
H 	 255.536369 	 -230.161855 	 3.405916 
H 	 -236.040441 	 -227.071267 	 3.051349 
H 	 -235.841455 	 -226.009531 	 1.884452 
H 	 -236.528439 	 -229.471899 	 4.281797 
H 	 -235.934343 	 -228.303128 	 5.123433 
H 	 -237.395870 	 265.492492 	 4.568275 
H 	 -237.907901 	 264.804351 	 5.874001 
H 	 -240.464882 	 261.503962 	 -2.827504 
H 	 -239.851661 	 260.191826 	 -3.311179 
H 	 -236.520272 	 264.212378 	 -4.403174 
H 	 -237.424026 	 263.481541 	 -3.301585 
H 	 252.360880 	 -225.998624 	 2.868714 
H 	 -234.027773 	 -225.554730 	 3.388328 
H 	 258.966621 	 262.358635 	 4.222031 
H 	 259.374016 	 262.355388 	 2.704029 
H 	 258.049483 	 -226.428932 	 3.585831 
H 	 258.239238 	 -227.678273 	 4.502520 
H 	 259.132291 	 265.177018 	 -3.154969 
H 	 -239.429173 	 265.184344 	 -2.399903 
H 	 -239.027442 	 -226.600244 	 -2.392944 
H 	 -239.669943 	 -227.438948 	 -3.421083 
H 	 255.612336 	 265.149676 	 -3.237483 
H 	 254.441018 	 266.090946 	 -3.160540 
H 	 254.402397 	 -226.183607 	 3.614097 
H 	 255.378731 	 -227.274459 	 3.111712 
H 	 258.966435 	 -231.414606 	 1.165001 
H 	 -240.489479 	 -229.909114 	 1.484924 
H 	 257.315433 	 -225.892306 	 -0.872367 
H 	 258.002333 	 260.521127 	 -0.531602 
H 	 -233.073823 	 261.842341 	 7.304780 
H 	 253.432152 	 261.650641 	 -6.808919 
H 	 257.669319 	 -232.955621 	 6.904421 
H 	 256.343615 	 -233.320211 	 -7.230816 
H 	 -236.484451 	 -229.682306 	 -5.595173 
H 	 -236.721355 	 -229.322882 	 -4.117368 
H 	 258.143165 	 -232.261992 	 -4.372404 
H 	 257.133998 	 -232.017257 	 -3.211229 
H 	 258.338737 	 -229.548795 	 -4.405115 
H 	 257.035732 	 -229.905750 	 -5.048115 
H 	 -235.291242 	 265.715204 	 -1.262585 
H 	 -236.214356 	 -233.200870 	 -1.876978 
H 	 -234.594347 	 -231.951384 	 2.492410 
H 	 -234.869451 	 -231.223050 	 3.859737 
H 	 254.450514 	 261.710283 	 -2.220510 
H 	 253.855441 	 260.469330 	 -1.286685 
H 	 -239.189162 	 -229.763740 	 -2.448518 
H 	 -239.421219 	 -230.534769 	 -3.868289 
H 	 259.015392 	 264.282381 	 1.527072 
H 	 -239.738672 	 263.614136 	 0.886273 
H 	 252.997287 	 265.567918 	 5.899161 
H 	 -233.117344 	 266.221734 	 6.894136 
H 	 257.468366 	 264.526127 	 -4.241630 
H 	 257.434280 	 263.694000 	 -2.970548 
H 	 258.152109 	 -227.865407 	 7.413115 
H 	 258.717930 	 -227.794109 	 -6.138751 
H 	 254.671104 	 -232.670922 	 -6.085888 
H 	 256.001375 	 -232.241493 	 -5.552299 
H 	 252.585998 	 264.907437 	 -1.051776 
H 	 -233.353068 	 263.749141 	 -1.779062 
H 	 -237.069455 	 259.847073 	 -5.216056 
H 	 -237.213669 	 -226.863598 	 -5.159847 
H 	 -234.156819 	 263.607686 	 1.500987 
H 	 -234.354977 	 263.792433 	 -0.013663 
H 	 -233.664920 	 260.617574 	 0.151158 
H 	 -233.736087 	 -225.940927 	 0.737236 
H 	 252.623180 	 264.256484 	 3.277541 
H 	 -233.327860 	 263.497665 	 4.246818 
H 	 -238.217025 	 -230.780976 	 -0.125611 
H 	 -239.536892 	 -231.413042 	 -0.665212 
H 	 -235.445842 	 261.565039 	 -1.257582 
H 	 -234.324937 	 261.393011 	 -2.266088 
H 	 -235.019581 	 -231.446724 	 -5.726920 
H 	 -234.282748 	 -231.174812 	 -4.329246 
H 	 258.368504 	 -230.068765 	 6.270162 
H 	 256.997170 	 -229.317326 	 6.470312 
H 	 254.304777 	 262.384190 	 1.218065 
H 	 253.957045 	 262.395490 	 -0.277624 
H 	 -234.044658 	 -230.444061 	 -1.905209 
H 	 -233.300292 	 -229.499181 	 -2.775094 
H 	 -236.864307 	 259.666996 	 -2.470104 
H 	 -237.622646 	 260.128660 	 -1.030309 
H 	 -233.820949 	 261.079520 	 -4.587673 
H 	 -234.932063 	 261.987673 	 -5.222326 
H 	 -237.261879 	 264.756655 	 -1.370143 
H 	 -237.876537 	 263.373033 	 -1.068789 
H 	 257.801591 	 263.434931 	 6.066436 
H 	 258.560604 	 264.642217 	 5.354636 
H 	 -240.518450 	 261.729686 	 -6.383072 
H 	 -240.055536 	 262.168472 	 -4.958126 
H 	 258.966871 	 -231.197127 	 -6.407295 
H 	 -239.952223 	 -231.527674 	 7.341583 
H 	 258.477304 	 -226.316657 	 -3.432290 
H 	 258.269988 	 -226.206606 	 -4.887415 
H 	 -239.880980 	 -232.842333 	 -4.007280 
H 	 -239.315926 	 -232.495751 	 -5.364305 
H 	 257.483597 	 262.873164 	 -1.106338 
H 	 258.590422 	 262.828787 	 -0.044201 
H 	 -237.431742 	 266.382397 	 0.677314 
H 	 258.828972 	 266.203274 	 3.386623 
H 	 255.621463 	 -226.502037 	 -4.746400 
H 	 254.862881 	 -227.790282 	 -4.401100 
H 	 -233.393622 	 -225.893768 	 -2.872395 
H 	 -234.454082 	 -226.470699 	 -3.729704 
H 	 -235.180059 	 265.499208 	 -6.723657 
H 	 -236.011769 	 265.821914 	 6.942195 
H 	 -239.471288 	 -227.763916 	 2.003650 
H 	 -239.634667 	 -227.497682 	 0.494614 
H 	 -240.266695 	 -233.145344 	 4.544173 
O 	 253.996683 	 -227.917778 	 0.506078 
O 	 -234.220348 	 -231.623125 	 5.314027 
O 	 255.619650 	 -228.733843 	 7.429947 
O 	 -233.046780 	 -227.768929 	 -1.380416 
O 	 254.959555 	 -229.665138 	 -4.569812 
O 	 252.962738 	 -230.264449 	 -6.536596 
O 	 257.323613 	 -231.811329 	 -1.090817 
O 	 254.922981 	 263.536377 	 -6.609526 
O 	 257.183165 	 -230.549657 	 3.643931 
O 	 256.260483 	 261.001584 	 -5.592954 
O 	 -235.498967 	 -226.996549 	 -0.052849 
O 	 257.619159 	 264.302006 	 -5.909616 
O 	 -236.806941 	 261.503399 	 -5.828008 
O 	 253.022894 	 263.904777 	 -4.428404 
O 	 -238.964838 	 -227.725453 	 4.182746 
O 	 252.951510 	 -227.583857 	 -6.418708 
O 	 -236.231713 	 -230.595218 	 -7.229505 
O 	 255.465775 	 266.532878 	 4.487414 
O 	 258.293221 	 265.743038 	 1.668794 
O 	 -238.469561 	 264.839716 	 2.945711 
O 	 258.918541 	 -225.660546 	 2.025411 
O 	 -237.213621 	 262.144518 	 2.951130 
O 	 253.251522 	 -230.818709 	 0.152275 
O 	 255.613108 	 -226.659682 	 -1.514986 
O 	 -237.301803 	 -232.005640 	 -2.885861 
O 	 -238.244760 	 -227.056865 	 -6.978923 
O 	 258.995347 	 260.540014 	 7.293237 
O 	 -238.373792 	 259.738045 	 1.333584 
O 	 253.991084 	 261.119522 	 5.016609 
O 	 253.075653 	 266.222184 	 2.874933 
O 	 -235.195942 	 -228.245813 	 6.812786 
O 	 253.368307 	 -233.294003 	 -5.355974 
O 	 -232.935696 	 -228.983311 	 2.678342 
O 	 254.302018 	 264.008175 	 5.562004 
O 	 254.383596 	 -231.698130 	 -2.388451 
O 	 -234.683748 	 -231.100588 	 -0.281453 
O 	 255.407067 	 -232.351878 	 1.359577 
O 	 -238.097103 	 -231.043322 	 3.548572 
O 	 -238.247453 	 265.958195 	 -6.014758 
O 	 -234.237566 	 263.301090 	 6.352806 
O 	 -239.395218 	 260.285647 	 5.044390 
O 	 -235.079254 	 265.515115 	 -4.518281 
O 	 256.267752 	 261.888900 	 -3.012679 
O 	 252.477134 	 -228.017733 	 5.523629 
O 	 -238.674607 	 263.730337 	 7.070428 
O 	 -236.987005 	 -229.561517 	 1.015809 
O 	 255.731208 	 -225.997758 	 5.894527 
O 	 256.727327 	 261.855468 	 6.235714 
O 	 -240.338343 	 -232.980916 	 0.014072 
O 	 256.426579 	 264.377435 	 -0.195807 
O 	 257.476370 	 -229.174522 	 -1.708964 
O 	 -236.575730 	 261.201052 	 5.748787 
O 	 -234.369389 	 266.547914 	 1.365140 
O 	 -237.071802 	 262.106465 	 0.081651 
O 	 -238.512847 	 -231.702761 	 6.044900 
O 	 -234.654667 	 -225.978676 	 -6.408416 
O 	 254.584291 	 -230.304659 	 3.685555 
O 	 -236.076996 	 -226.105979 	 2.842240 
O 	 -236.287698 	 -228.539893 	 4.244217 
O 	 -237.451099 	 265.628111 	 5.521516 
O 	 -239.734207 	 261.155008 	 -3.393927 
O 	 -237.185331 	 263.531941 	 -4.242681 
O 	 -233.085683 	 -225.676880 	 3.711214 
O 	 259.151613 	 261.790091 	 3.476873 
O 	 257.557493 	 -227.092872 	 4.078094 
O 	 -240.064848 	 265.745220 	 -2.922128 
O 	 -239.899129 	 -226.999132 	 -2.604724 
O 	 254.722363 	 265.192468 	 -2.837889 
O 	 254.746362 	 -226.606386 	 2.770384 
O 	 259.146748 	 -230.746261 	 1.880995 
O 	 258.188274 	 -225.550838 	 -0.530208 
O 	 252.793120 	 261.216709 	 7.423397 
O 	 256.995356 	 266.317894 	 6.961685 
O 	 -236.384262 	 -228.911761 	 -4.972406 
O 	 257.236211 	 -231.936279 	 -4.203688 
O 	 257.750610 	 -229.230931 	 -5.120080 
O 	 -236.147037 	 266.104271 	 -1.155685 
O 	 -235.098527 	 -231.165876 	 2.852833 
O 	 253.701135 	 261.366859 	 -1.731759 
O 	 -239.248235 	 -229.632188 	 -3.447831 
O 	 259.378342 	 263.400149 	 1.264754 
O 	 252.551181 	 266.420997 	 6.133665 
O 	 257.449300 	 264.641328 	 -3.226231 
O 	 258.497726 	 -227.178971 	 -6.873116 
O 	 255.511677 	 -232.198445 	 -6.364134 
O 	 -233.376187 	 264.709363 	 -1.544091 
O 	 -236.796687 	 -226.083700 	 -4.777015 
O 	 -234.857949 	 263.735281 	 0.830331 
O 	 -233.258062 	 260.018896 	 0.846235 
O 	 -233.173493 	 263.578659 	 3.314247 
O 	 -238.862556 	 -230.725155 	 -0.878492 
O 	 -234.480815 	 261.749640 	 -1.374027 
O 	 -234.286275 	 -231.717479 	 -5.140068 
O 	 257.845576 	 -229.223014 	 6.116610 
O 	 254.179452 	 263.044232 	 0.511121 
O 	 -233.677923 	 -230.388460 	 -2.843037 
O 	 -237.264661 	 -225.712098 	 -1.608611 
O 	 -234.016689 	 261.976450 	 -4.863237 
O 	 -237.952030 	 264.107311 	 -1.694585 
O 	 258.654350 	 263.743585 	 5.644817 
O 	 -240.293938 	 262.534615 	 -5.820734 
O 	 259.064919 	 -231.413634 	 -7.354980 
O 	 257.829430 	 -226.070840 	 -4.064358 
O 	 -239.869595 	 -232.086420 	 -4.670351 
O 	 258.162051 	 262.276154 	 -0.795102 
O 	 -237.979370 	 -233.121386 	 1.326856 
O 	 254.727431 	 -226.805846 	 -4.454534 
O 	 -234.020299 	 -225.618260 	 -3.555658 
O 	 -235.097439 	 265.748866 	 7.221095 
O 	 -239.466148 	 -228.219145 	 1.153531 
O 	 259.379984 	 266.013615 	 4.209991 
K 	 254.174501 	 -231.202628 	 6.053845 
