333
conformation = 49
H 	 -4.685359 	 6.245681 	 5.067459 
H 	 -4.658076 	 -7.433638 	 5.877495 
H 	 6.676640 	 3.278901 	 -4.311911 
H 	 -7.044190 	 2.795565 	 -5.194119 
H 	 -2.961421 	 6.211983 	 -2.413120 
H 	 -3.027730 	 7.326195 	 -3.484120 
H 	 -7.479750 	 7.447484 	 3.454995 
H 	 -5.935248 	 7.070960 	 3.515460 
H 	 -3.815771 	 4.941544 	 0.705523 
H 	 -4.288503 	 5.019890 	 -0.746267 
H 	 -6.455301 	 4.327680 	 -1.761589 
H 	 -5.810015 	 5.810829 	 -2.094160 
H 	 -0.494762 	 2.738973 	 3.869167 
H 	 -1.257740 	 4.009455 	 3.341817 
H 	 -4.208432 	 -1.248617 	 -1.403058 
H 	 -2.719060 	 -1.298226 	 -1.896426 
H 	 -0.774148 	 4.486617 	 7.364295 
H 	 -1.158511 	 4.972640 	 -6.013456 
H 	 -2.746028 	 -3.020329 	 -1.787843 
H 	 -1.510215 	 -3.957797 	 -1.606909 
H 	 5.289197 	 7.048893 	 4.647969 
H 	 5.244095 	 -6.528722 	 3.780024 
H 	 -0.145966 	 -1.214026 	 -1.641883 
H 	 -1.002362 	 0.053217 	 -2.170069 
H 	 4.387865 	 -3.325410 	 -2.389524 
H 	 4.335767 	 -2.649251 	 -0.938035 
H 	 -6.104735 	 -1.518848 	 0.210315 
H 	 -4.904361 	 -0.551816 	 0.559392 
H 	 3.236110 	 7.234867 	 -6.413455 
H 	 2.302186 	 -6.469642 	 -6.215784 
H 	 -6.515959 	 -6.829417 	 -1.620812 
H 	 -4.965390 	 -6.877270 	 -1.505242 
H 	 5.539411 	 5.193520 	 -3.178927 
H 	 4.394423 	 4.274839 	 -3.227325 
H 	 -2.259335 	 1.886115 	 -5.517754 
H 	 -3.072479 	 0.710426 	 -5.926280 
H 	 0.162473 	 1.299452 	 5.593538 
H 	 -1.216589 	 0.633340 	 5.919359 
H 	 2.332629 	 0.278280 	 -7.104884 
H 	 3.476446 	 0.530795 	 6.684988 
H 	 -0.204030 	 -5.585914 	 5.761510 
H 	 -0.198478 	 -4.818873 	 7.058304 
H 	 3.736610 	 -1.881701 	 7.472058 
H 	 3.506243 	 -3.490104 	 7.247748 
H 	 -4.917995 	 3.470479 	 5.215702 
H 	 -6.234722 	 4.128687 	 4.716132 
H 	 -3.493859 	 -6.470226 	 2.230498 
H 	 -3.505796 	 -6.922310 	 3.776451 
H 	 3.638248 	 2.737147 	 0.592404 
H 	 3.575494 	 3.423982 	 1.973324 
H 	 3.002621 	 7.110617 	 -2.092586 
H 	 2.151872 	 -6.790393 	 -2.905977 
H 	 1.141262 	 -4.364188 	 -3.876602 
H 	 0.234283 	 -5.267389 	 -2.950310 
H 	 3.590361 	 -5.644723 	 6.443519 
H 	 2.032485 	 -5.360028 	 6.130619 
H 	 -5.462361 	 -4.156909 	 -6.004610 
H 	 -5.070479 	 -4.058291 	 -4.518233 
H 	 -4.769659 	 1.216258 	 6.582380 
H 	 -5.338161 	 1.960145 	 -7.152153 
H 	 6.356392 	 -7.252942 	 -3.035580 
H 	 7.253896 	 6.945278 	 -4.006381 
H 	 -5.542854 	 0.886413 	 -0.571674 
H 	 -5.936380 	 2.372254 	 -0.616412 
H 	 -6.554333 	 5.940795 	 -6.854376 
H 	 -7.348867 	 5.187234 	 6.936007 
H 	 -4.858985 	 -1.733169 	 -5.464561 
H 	 -4.134027 	 -1.327030 	 -4.155268 
H 	 -3.209140 	 3.200246 	 2.334862 
H 	 -4.519381 	 3.813926 	 2.780795 
H 	 6.772707 	 3.201036 	 4.682966 
H 	 5.984668 	 4.519162 	 4.478635 
H 	 -2.625724 	 2.455377 	 6.509832 
H 	 -2.619165 	 2.954281 	 4.955581 
H 	 2.546970 	 4.359888 	 -7.354868 
H 	 3.586950 	 3.336540 	 7.246849 
H 	 3.400491 	 0.359238 	 -1.042146 
H 	 2.860430 	 0.607023 	 -2.420955 
H 	 6.739235 	 -1.129808 	 -3.529145 
H 	 6.234772 	 -2.458199 	 -4.287112 
H 	 1.977194 	 -4.047290 	 -5.947154 
H 	 3.080394 	 -4.480402 	 -4.985114 
H 	 6.611512 	 1.323954 	 -0.142601 
H 	 7.243574 	 -0.021218 	 0.123861 
H 	 -2.331227 	 -3.691780 	 0.565228 
H 	 -1.875536 	 -4.007333 	 1.925056 
H 	 -5.627010 	 7.326625 	 -3.946540 
H 	 -6.029067 	 -6.884804 	 -5.365055 
H 	 2.264683 	 -1.515278 	 -2.662784 
H 	 1.688805 	 -1.174169 	 -4.088131 
H 	 4.710527 	 4.918068 	 6.084180 
H 	 3.623883 	 5.979304 	 5.489049 
H 	 -3.384117 	 -5.359869 	 -5.156575 
H 	 -2.124879 	 -6.087095 	 -4.915963 
H 	 -1.192223 	 -3.822870 	 -4.083155 
H 	 -2.560540 	 -3.444765 	 -4.611038 
H 	 2.600943 	 1.907074 	 5.125185 
H 	 1.037245 	 1.648009 	 3.581510 
H 	 -3.019126 	 -0.850165 	 4.562865 
H 	 -2.177876 	 0.109497 	 3.607250 
H 	 -0.404173 	 6.560610 	 2.580720 
H 	 -1.902756 	 6.663443 	 2.492387 
H 	 5.479298 	 -4.531010 	 -4.679045 
H 	 4.924163 	 -3.371817 	 -5.740980 
H 	 6.693450 	 0.569085 	 5.605180 
H 	 -7.142253 	 1.346995 	 6.321883 
H 	 5.158225 	 -2.371149 	 4.997674 
H 	 4.053878 	 -3.560130 	 5.046458 
H 	 3.489690 	 2.378462 	 -4.495941 
H 	 3.111991 	 3.777087 	 -5.183606 
H 	 7.076185 	 -5.040466 	 -2.289288 
H 	 6.119588 	 -5.927860 	 -1.425297 
H 	 -4.672458 	 5.410449 	 -7.263897 
H 	 -3.195328 	 4.741870 	 -7.026265 
H 	 5.308272 	 -6.851569 	 -7.215056 
H 	 5.627134 	 -6.007524 	 6.446425 
H 	 5.060456 	 5.631572 	 -6.494884 
H 	 5.407743 	 6.645091 	 -5.359686 
H 	 3.859193 	 0.390659 	 -5.793536 
H 	 3.617888 	 0.137942 	 -4.303890 
H 	 1.348308 	 -3.240989 	 1.892420 
H 	 1.146224 	 -4.456541 	 1.047945 
H 	 4.973495 	 -0.771792 	 0.215442 
H 	 3.987142 	 -1.391952 	 1.133122 
H 	 -6.583745 	 -5.395213 	 7.293140 
H 	 -7.562220 	 -5.556042 	 -6.411048 
H 	 0.072205 	 -2.535174 	 -6.266822 
H 	 0.412563 	 -2.519718 	 7.134951 
H 	 -0.430947 	 -7.005288 	 -6.939085 
H 	 -0.458992 	 7.209084 	 -5.548497 
H 	 0.482670 	 0.345342 	 1.576190 
H 	 1.948684 	 -0.066067 	 1.762402 
H 	 2.119260 	 -6.406926 	 2.312269 
H 	 1.761527 	 7.090427 	 1.511259 
H 	 -3.046561 	 0.236563 	 1.445524 
H 	 -4.143461 	 1.454051 	 1.508635 
H 	 -4.124844 	 -5.946217 	 -6.896289 
H 	 -2.980770 	 -6.909540 	 -7.224807 
H 	 0.918585 	 3.536855 	 5.619881 
H 	 0.876741 	 5.042871 	 5.701353 
H 	 -1.204222 	 -5.827257 	 3.559738 
H 	 -0.376969 	 -4.446857 	 3.774415 
H 	 -6.458190 	 -2.890399 	 -3.236476 
H 	 -5.204619 	 -3.387392 	 -2.544707 
H 	 -0.610051 	 1.757238 	 -3.336764 
H 	 -2.018363 	 1.867969 	 -2.840335 
H 	 4.875127 	 5.430474 	 -1.101683 
H 	 4.423551 	 6.004159 	 0.276094 
H 	 -0.432396 	 3.100019 	 0.063084 
H 	 -1.475917 	 3.276019 	 1.210646 
H 	 -0.367733 	 5.686709 	 0.151942 
H 	 -1.827498 	 5.604233 	 -0.393849 
H 	 6.236539 	 0.857475 	 2.961916 
H 	 4.952229 	 1.571520 	 2.346268 
H 	 6.202686 	 3.195665 	 6.767573 
H 	 6.532403 	 3.630684 	 -6.563527 
H 	 -4.217131 	 -3.728871 	 2.351904 
H 	 -5.035230 	 -4.340278 	 3.363529 
H 	 2.097274 	 4.912289 	 1.770557 
H 	 1.831438 	 4.841042 	 0.221157 
H 	 0.339943 	 -0.663151 	 5.895592 
H 	 1.795489 	 -1.248356 	 5.889104 
H 	 -5.459375 	 0.481795 	 -4.757459 
H 	 -6.668588 	 1.032124 	 -3.941096 
H 	 -1.095718 	 -0.272063 	 0.085670 
H 	 -1.433598 	 -1.327748 	 1.197294 
H 	 0.006540 	 7.312642 	 -3.244342 
H 	 -0.660548 	 7.169798 	 -1.852669 
H 	 -3.816295 	 2.649786 	 -1.435812 
H 	 -2.341661 	 3.210264 	 -1.365132 
H 	 -5.866300 	 0.098891 	 2.569129 
H 	 -6.856458 	 -1.095381 	 2.731184 
H 	 4.459780 	 -4.939202 	 -0.632799 
H 	 4.147544 	 -6.430782 	 -0.638761 
H 	 7.093670 	 -1.517023 	 6.253923 
H 	 -7.399496 	 -1.010961 	 4.853020 
H 	 -7.250880 	 -3.989761 	 4.616723 
H 	 -7.043482 	 -5.523606 	 4.715775 
H 	 -6.446021 	 -0.519899 	 -7.205616 
H 	 -7.433612 	 -1.459772 	 -6.455896 
H 	 3.238460 	 4.583777 	 4.106284 
H 	 2.240255 	 3.413572 	 3.948991 
H 	 5.821061 	 -2.860134 	 3.366618 
H 	 6.968326 	 -3.652818 	 2.573739 
H 	 6.548880 	 3.734974 	 -1.190196 
H 	 7.269633 	 4.048359 	 0.192180 
H 	 -0.259851 	 5.061476 	 -3.816306 
H 	 -1.306456 	 6.065206 	 -4.187366 
H 	 -4.652009 	 -2.617953 	 5.691882 
H 	 -4.606971 	 -2.295311 	 4.085199 
H 	 7.217752 	 4.192895 	 2.284868 
H 	 -7.118801 	 5.647829 	 1.920289 
H 	 4.129795 	 -5.480413 	 1.687368 
H 	 3.873456 	 -4.577275 	 2.900108 
H 	 -7.430220 	 -3.730595 	 0.119438 
H 	 6.572189 	 -2.906356 	 -0.788847 
H 	 4.137750 	 -0.221920 	 2.871194 
H 	 3.754591 	 -1.676138 	 3.404458 
H 	 -0.897690 	 -1.733660 	 -4.583414 
H 	 -0.168601 	 -0.349287 	 -5.238071 
H 	 0.946559 	 -3.210512 	 -1.915497 
H 	 1.329267 	 -2.824520 	 -0.440726 
H 	 0.529819 	 4.052772 	 -1.871722 
H 	 1.369104 	 3.552137 	 -3.110640 
H 	 0.015722 	 -6.376975 	 1.083153 
H 	 -0.435608 	 -5.914482 	 -0.313440 
H 	 1.345480 	 2.119113 	 0.524108 
H 	 1.806234 	 2.305907 	 -0.922416 
H 	 -1.166188 	 -2.212065 	 3.641270 
H 	 0.192517 	 -2.502498 	 4.420413 
H 	 4.146968 	 2.147824 	 4.752980 
H 	 0.174488 	 1.150101 	 -6.992376 
H 	 -3.060983 	 -6.110607 	 -0.113421 
H 	 -3.518510 	 7.258044 	 -0.067753 
H 	 -7.197922 	 -6.413732 	 1.481367 
H 	 6.570876 	 -5.771102 	 0.584445 
H 	 5.674869 	 0.847335 	 -2.466645 
H 	 5.690353 	 0.838172 	 -4.085646 
H 	 1.898544 	 7.326158 	 6.431346 
H 	 1.958657 	 -7.205202 	 4.916882 
H 	 0.713622 	 2.013385 	 -5.751005 
O 	 -4.611918 	 7.229382 	 4.921123 
O 	 7.245379 	 3.526273 	 -5.065400 
O 	 -2.832132 	 6.387531 	 -3.357999 
O 	 -6.680497 	 7.202418 	 2.885666 
O 	 -3.745629 	 5.521222 	 -0.083775 
O 	 -5.657353 	 4.842556 	 -2.122967 
O 	 -1.375358 	 3.036516 	 3.392723 
O 	 -3.641342 	 -1.499227 	 -2.155346 
O 	 -1.465992 	 4.493679 	 -6.816120 
O 	 -2.429058 	 -3.798178 	 -1.284651 
O 	 5.802625 	 -7.070172 	 4.378486 
O 	 -0.979623 	 -0.681548 	 -1.547908 
O 	 4.714709 	 -3.439403 	 -1.462203 
O 	 -5.565458 	 -0.804355 	 -0.127454 
O 	 2.295873 	 -7.428837 	 -6.514484 
O 	 -5.723268 	 -7.324701 	 -1.952017 
O 	 5.182509 	 4.393548 	 -2.717969 
O 	 -3.075659 	 1.695289 	 -6.070756 
O 	 -0.282860 	 0.731894 	 6.291821 
O 	 3.173505 	 -0.089656 	 7.463857 
O 	 0.147072 	 -5.645178 	 6.669100 
O 	 4.169873 	 -2.785690 	 -7.317099 
O 	 -5.253786 	 4.233665 	 4.651763 
O 	 -2.936592 	 -6.590795 	 3.051641 
O 	 4.229038 	 3.018199 	 1.309936 
O 	 3.033777 	 -6.973264 	 -2.557656 
O 	 0.407932 	 -4.327087 	 -3.223589 
O 	 2.928441 	 -5.366423 	 5.761557 
O 	 -4.674542 	 -4.013843 	 -5.463295 
O 	 -5.620576 	 1.348951 	 7.019018 
O 	 6.358027 	 6.826280 	 -3.643190 
O 	 -5.223345 	 1.771010 	 -0.888228 
O 	 -6.715567 	 5.925525 	 7.093346 
O 	 -4.380009 	 -1.020139 	 -5.006448 
O 	 -4.044273 	 3.475386 	 1.963257 
O 	 6.724511 	 4.007645 	 4.184578 
O 	 -3.172851 	 2.768754 	 5.753329 
O 	 3.496300 	 4.163565 	 -7.115150 
O 	 3.049443 	 1.074536 	 -1.551406 
O 	 7.024994 	 -1.860814 	 -4.126270 
O 	 2.225560 	 -4.790633 	 -5.321012 
O 	 6.397377 	 0.348358 	 -0.058323 
O 	 -2.337865 	 -3.293709 	 1.443494 
O 	 -6.056493 	 7.190296 	 -4.828822 
O 	 2.535767 	 -1.130307 	 -3.547445 
O 	 4.445016 	 5.432178 	 5.330134 
O 	 -2.888741 	 -5.775271 	 -4.427340 
O 	 -1.756656 	 -3.027315 	 -4.188909 
O 	 0.981783 	 2.056285 	 4.471607 
O 	 -2.116492 	 -0.561250 	 4.301462 
O 	 -1.204588 	 5.996746 	 2.630674 
O 	 4.899096 	 -3.724127 	 -4.810599 
O 	 6.922471 	 1.494617 	 5.767016 
O 	 4.454973 	 -2.828211 	 4.525664 
O 	 2.993833 	 3.238234 	 -4.336018 
O 	 6.880357 	 -5.961105 	 -2.027465 
O 	 -4.108583 	 4.908861 	 -6.676692 
O 	 5.119204 	 -5.971444 	 7.273531 
O 	 5.113960 	 6.572271 	 -6.279536 
O 	 4.088345 	 0.756809 	 -4.921652 
O 	 1.732360 	 -3.681445 	 1.129157 
O 	 4.186199 	 -1.397094 	 0.159766 
O 	 -6.632696 	 -5.613987 	 -6.635302 
O 	 0.545434 	 -3.012091 	 -6.936276 
O 	 -0.988665 	 -7.077612 	 -6.139598 
O 	 1.420071 	 0.713565 	 1.534541 
O 	 1.494524 	 -6.909789 	 1.762689 
O 	 -3.956815 	 0.498326 	 1.664758 
O 	 -3.793797 	 -6.500399 	 7.287780 
O 	 0.714426 	 4.270974 	 6.258830 
O 	 -0.326963 	 -5.423175 	 3.827424 
O 	 -5.907370 	 -3.738317 	 -3.104445 
O 	 -1.456620 	 1.317724 	 -3.435266 
O 	 4.863804 	 6.222889 	 -0.530708 
O 	 -1.372268 	 3.186305 	 0.239724 
O 	 -0.875367 	 5.758413 	 -0.679993 
O 	 5.262927 	 1.050846 	 3.125769 
O 	 6.327653 	 3.989355 	 7.380064 
O 	 -5.079072 	 -3.571992 	 2.771717 
O 	 2.061989 	 5.501007 	 0.942068 
O 	 0.881800 	 -1.479303 	 5.643751 
O 	 -6.013206 	 1.297463 	 -4.594817 
O 	 -1.277249 	 -0.348401 	 1.051123 
O 	 -0.120151 	 -7.132800 	 -2.414995 
O 	 -2.998840 	 2.882769 	 -1.938289 
O 	 -6.762628 	 -0.145874 	 2.961504 
O 	 4.716601 	 -5.792200 	 -0.196214 
O 	 6.714742 	 -1.195444 	 5.396520 
O 	 -6.915120 	 -4.694888 	 5.233849 
O 	 -6.784510 	 -1.431841 	 -7.191714 
O 	 2.569399 	 4.227950 	 3.524789 
O 	 6.758834 	 -2.887861 	 3.178498 
O 	 7.250442 	 3.381499 	 -0.603851 
O 	 -0.508531 	 5.683891 	 -4.556300 
O 	 -4.367806 	 -1.932997 	 5.027392 
O 	 -7.266870 	 4.752674 	 1.560849 
O 	 3.972490 	 -5.535785 	 2.691795 
O 	 -7.449691 	 -2.882086 	 -0.381680 
O 	 3.505370 	 -0.997030 	 2.736122 
O 	 -0.047433 	 -1.263185 	 -4.837170 
O 	 1.258854 	 -2.439969 	 -1.331896 
O 	 0.404323 	 3.669913 	 -2.766589 
O 	 -0.726929 	 -6.015423 	 0.616333 
O 	 1.472612 	 2.839888 	 -0.174352 
O 	 -0.312402 	 -2.767601 	 3.576308 
O 	 3.520377 	 1.985082 	 5.477558 
O 	 -3.809597 	 -6.703512 	 -0.066627 
O 	 -7.492488 	 -5.622143 	 0.999880 
O 	 6.251907 	 0.799371 	 -3.288194 
O 	 2.045657 	 6.943385 	 5.504960 
O 	 0.608691 	 1.119957 	 -6.086336 
K 	 -4.470680 	 3.796346 	 -4.432416 
