333
conformation = 24
H 	 -4.736399 	 6.268831 	 5.019725 
H 	 -4.634412 	 -7.169428 	 5.646917 
H 	 6.629492 	 3.440892 	 -4.509581 
H 	 -7.119336 	 2.719514 	 -5.208436 
H 	 -2.681828 	 6.371814 	 -2.343341 
H 	 -3.153324 	 7.299870 	 -3.552282 
H 	 -7.313961 	 7.362695 	 3.546088 
H 	 -5.746443 	 7.409275 	 3.381294 
H 	 -3.767282 	 4.925472 	 0.547025 
H 	 -4.358082 	 5.121506 	 -0.895744 
H 	 -6.330019 	 4.328303 	 -1.758262 
H 	 -5.737718 	 5.842184 	 -2.132602 
H 	 -0.554572 	 2.666080 	 3.631227 
H 	 -1.016523 	 4.131645 	 3.202908 
H 	 -4.210855 	 -1.372819 	 -1.508828 
H 	 -2.849231 	 -0.876949 	 -1.964359 
H 	 -0.790913 	 4.604444 	 7.210641 
H 	 -1.316201 	 5.348837 	 -6.315522 
H 	 -2.691151 	 -3.197949 	 -2.002420 
H 	 -1.486134 	 -3.961261 	 -1.733215 
H 	 5.400515 	 7.253725 	 4.678445 
H 	 5.192891 	 -6.309812 	 3.755304 
H 	 -0.166641 	 -1.211055 	 -1.668266 
H 	 -0.899478 	 -0.046771 	 -2.434595 
H 	 4.352386 	 -3.176956 	 -2.478816 
H 	 4.368686 	 -2.645267 	 -0.966202 
H 	 -6.161456 	 -1.597035 	 0.125964 
H 	 -5.085823 	 -0.547811 	 0.637196 
H 	 3.354183 	 7.216762 	 -6.432834 
H 	 2.308786 	 -6.635566 	 -5.976141 
H 	 -6.492723 	 -6.758025 	 -2.131124 
H 	 -5.036126 	 -6.947291 	 -1.412167 
H 	 5.353085 	 5.421832 	 -3.295193 
H 	 4.443227 	 4.085750 	 -3.411372 
H 	 -2.367214 	 1.666642 	 -5.486670 
H 	 -3.435307 	 0.769272 	 -5.979868 
H 	 0.213657 	 1.268311 	 5.253966 
H 	 -1.158843 	 0.429223 	 5.729841 
H 	 2.132128 	 0.176509 	 -7.320576 
H 	 3.254941 	 0.634431 	 6.563999 
H 	 -0.094498 	 -5.395807 	 5.497955 
H 	 0.263516 	 -4.639871 	 6.821656 
H 	 3.539717 	 -2.000874 	 7.320255 
H 	 3.696013 	 -3.613990 	 7.125512 
H 	 -4.975643 	 3.749318 	 5.312186 
H 	 -6.281155 	 4.216058 	 4.568591 
H 	 -3.377681 	 -6.828088 	 2.008088 
H 	 -3.421967 	 -6.891006 	 3.639553 
H 	 3.851753 	 3.208288 	 0.390693 
H 	 3.460529 	 3.474706 	 1.956356 
H 	 3.180448 	 7.122393 	 -2.368099 
H 	 2.230697 	 -6.801361 	 -3.098883 
H 	 0.991959 	 -4.259159 	 -4.083113 
H 	 0.202911 	 -5.221306 	 -3.105326 
H 	 3.405779 	 -5.683003 	 6.408320 
H 	 2.045312 	 -5.151163 	 5.808102 
H 	 -5.265705 	 -4.061147 	 -6.290985 
H 	 -5.224588 	 -3.766033 	 -4.779048 
H 	 -4.859826 	 1.466850 	 6.406037 
H 	 -5.318144 	 2.078009 	 -7.240179 
H 	 6.340536 	 -7.184012 	 -3.173626 
H 	 7.170201 	 6.816318 	 -4.184973 
H 	 -5.416892 	 0.869874 	 -1.135954 
H 	 -6.032554 	 2.238724 	 -0.945102 
H 	 -6.723847 	 6.216141 	 -6.990915 
H 	 -7.108831 	 5.274149 	 6.748734 
H 	 -4.664734 	 -1.796674 	 -5.446659 
H 	 -4.088701 	 -1.202504 	 -4.163076 
H 	 -3.333209 	 3.264020 	 2.355559 
H 	 -4.806346 	 3.604601 	 2.538887 
H 	 6.563052 	 3.045176 	 4.289556 
H 	 5.913598 	 4.534594 	 4.184566 
H 	 -2.772149 	 2.627252 	 6.487275 
H 	 -2.525713 	 3.160328 	 5.023505 
H 	 2.567958 	 4.223557 	 7.247489 
H 	 3.863422 	 3.364786 	 7.311609 
H 	 2.814362 	 0.724284 	 -0.884810 
H 	 2.783929 	 0.495802 	 -2.404275 
H 	 7.129049 	 -0.736564 	 -4.135270 
H 	 6.155139 	 -1.954351 	 -4.298106 
H 	 1.820956 	 -3.859733 	 -6.090722 
H 	 3.019422 	 -4.474111 	 -5.310071 
H 	 6.546569 	 1.505561 	 -0.070906 
H 	 7.144644 	 0.059717 	 0.140484 
H 	 -2.233095 	 -3.161202 	 0.311332 
H 	 -1.950651 	 -4.028481 	 1.431499 
H 	 -5.637095 	 -7.289804 	 -4.274492 
H 	 -6.208604 	 -7.047940 	 -5.710872 
H 	 2.625727 	 -1.536849 	 -2.736945 
H 	 1.736024 	 -1.138228 	 -3.969202 
H 	 4.678871 	 5.371496 	 6.232073 
H 	 3.572581 	 6.006010 	 5.204338 
H 	 -3.647514 	 -5.212092 	 -4.887620 
H 	 -2.494426 	 -5.895058 	 -5.515893 
H 	 -1.096851 	 -3.653670 	 -4.178066 
H 	 -2.537060 	 -3.607570 	 -4.690101 
H 	 2.574275 	 1.992177 	 4.956444 
H 	 1.145634 	 1.657572 	 3.463152 
H 	 -2.761732 	 -1.238166 	 4.297715 
H 	 -2.621091 	 0.050908 	 3.509151 
H 	 -0.462029 	 6.640974 	 2.445798 
H 	 -1.929687 	 6.548971 	 2.661862 
H 	 5.239058 	 -4.507680 	 -5.248513 
H 	 4.551746 	 -3.270391 	 -5.724030 
H 	 6.466915 	 0.767682 	 5.507774 
H 	 -7.167737 	 1.264753 	 6.271887 
H 	 5.073088 	 -2.315825 	 4.894767 
H 	 3.877442 	 -3.316376 	 4.987125 
H 	 3.134461 	 2.422541 	 -4.773751 
H 	 3.151769 	 3.783896 	 -5.339073 
H 	 -7.556504 	 -5.023943 	 -1.988380 
H 	 6.069312 	 -5.779371 	 -1.498413 
H 	 -4.505207 	 5.477811 	 -7.472473 
H 	 -3.097076 	 4.667427 	 -7.149931 
H 	 5.173122 	 -6.890385 	 7.208066 
H 	 5.659902 	 -5.748386 	 6.296827 
H 	 4.653560 	 5.750460 	 -6.464876 
H 	 5.406162 	 6.666268 	 -5.457567 
H 	 3.937250 	 0.573259 	 -6.057234 
H 	 3.527637 	 0.046188 	 -4.658303 
H 	 1.292398 	 -3.343782 	 1.731473 
H 	 1.464405 	 -4.637399 	 1.090117 
H 	 4.920826 	 -0.642314 	 0.045602 
H 	 3.904422 	 -1.369016 	 0.978704 
H 	 -6.380190 	 -5.826598 	 7.150941 
H 	 -7.541030 	 -5.615042 	 -6.809867 
H 	 0.185490 	 -2.425726 	 -6.426403 
H 	 0.758644 	 -2.480847 	 7.015207 
H 	 -0.450516 	 -6.642794 	 -7.175998 
H 	 -0.433664 	 7.452873 	 -5.788628 
H 	 0.559409 	 0.276776 	 1.227113 
H 	 2.095735 	 0.190004 	 1.491810 
H 	 2.311387 	 -6.443718 	 2.041362 
H 	 1.768307 	 7.328011 	 1.067744 
H 	 -2.930286 	 0.289533 	 1.324578 
H 	 -4.148211 	 1.308758 	 1.259046 
H 	 -4.120607 	 -5.934093 	 -7.050911 
H 	 -3.221058 	 -7.088981 	 -7.407347 
H 	 0.379597 	 3.680619 	 5.493168 
H 	 0.877251 	 5.069706 	 5.617752 
H 	 -1.168367 	 -5.833553 	 3.410128 
H 	 -0.521861 	 -4.368694 	 3.510227 
H 	 -6.542449 	 -2.990688 	 -3.269221 
H 	 -5.123298 	 -3.316042 	 -2.712049 
H 	 -0.874928 	 2.071269 	 -3.586579 
H 	 -2.268353 	 1.900724 	 -3.026270 
H 	 4.989167 	 5.410442 	 -1.194247 
H 	 4.684336 	 5.995168 	 0.199275 
H 	 -0.397691 	 3.076172 	 0.073413 
H 	 -1.614252 	 3.291526 	 1.011590 
H 	 -0.267256 	 5.562914 	 -0.109617 
H 	 -1.675869 	 5.276435 	 -0.821102 
H 	 6.201449 	 0.797393 	 2.951279 
H 	 5.085790 	 1.778737 	 2.366873 
H 	 6.174198 	 3.100909 	 6.803286 
H 	 6.637068 	 3.738004 	 -6.760130 
H 	 -4.242755 	 -3.604020 	 1.957777 
H 	 -4.698270 	 -4.276338 	 3.130859 
H 	 2.044570 	 5.314983 	 1.777128 
H 	 2.156666 	 4.619689 	 0.394969 
H 	 0.360938 	 -0.580019 	 5.726732 
H 	 1.738233 	 -1.296215 	 5.568228 
H 	 -5.568197 	 0.631290 	 -4.791747 
H 	 -6.466485 	 1.196357 	 -3.736513 
H 	 -1.264027 	 -0.346370 	 -0.038018 
H 	 -1.452749 	 -1.131831 	 1.416105 
H 	 -0.214947 	 7.096715 	 -3.131227 
H 	 -0.057042 	 -7.372094 	 -1.661069 
H 	 -3.885878 	 2.417683 	 -1.944209 
H 	 -2.531272 	 2.843378 	 -1.194767 
H 	 -5.907329 	 0.108862 	 2.952016 
H 	 -6.810573 	 -1.098695 	 2.614579 
H 	 4.303671 	 -5.004289 	 -0.908371 
H 	 4.121897 	 -6.496610 	 -0.911187 
H 	 7.080343 	 -1.263809 	 6.050270 
H 	 7.207780 	 -0.968691 	 4.398800 
H 	 -7.381926 	 -4.343974 	 4.473073 
H 	 -7.142144 	 -5.673421 	 5.032182 
H 	 -6.147082 	 -0.564175 	 -7.441458 
H 	 -7.192230 	 -1.315169 	 -6.419927 
H 	 3.360005 	 4.532236 	 3.892899 
H 	 2.021187 	 3.745439 	 4.027686 
H 	 5.922800 	 -3.295073 	 3.122703 
H 	 7.118849 	 -3.316975 	 2.109752 
H 	 6.444876 	 3.724228 	 -1.366034 
H 	 7.209127 	 3.995769 	 -0.016655 
H 	 -0.283057 	 5.019311 	 -4.193824 
H 	 -1.541817 	 5.867642 	 -4.102211 
H 	 -4.418272 	 -2.632003 	 5.458367 
H 	 -4.781869 	 -2.166677 	 4.011414 
H 	 7.315597 	 4.441678 	 2.290814 
H 	 -7.080321 	 5.719953 	 1.397699 
H 	 4.559623 	 -5.161195 	 1.851349 
H 	 3.747567 	 -4.686851 	 3.024090 
H 	 -7.363297 	 -3.732717 	 -0.057830 
H 	 6.502718 	 -2.961334 	 -0.876770 
H 	 4.151662 	 -0.167826 	 2.824928 
H 	 3.632523 	 -1.558153 	 3.306790 
H 	 -0.886389 	 -1.520227 	 -4.783572 
H 	 -0.120242 	 -0.217693 	 -5.301139 
H 	 0.942110 	 -3.132871 	 -2.099201 
H 	 1.462832 	 -2.871977 	 -0.660496 
H 	 0.419417 	 3.770413 	 -1.989004 
H 	 1.363871 	 3.659141 	 -3.324396 
H 	 -0.029574 	 -6.221937 	 1.006039 
H 	 -0.354688 	 -6.059205 	 -0.568111 
H 	 1.628582 	 2.293664 	 0.332324 
H 	 1.828101 	 2.495426 	 -1.156800 
H 	 -1.098201 	 -2.023318 	 3.171830 
H 	 0.123286 	 -2.128656 	 4.164160 
H 	 4.214247 	 2.089935 	 4.875999 
H 	 0.126704 	 1.403446 	 -7.077824 
H 	 -3.003003 	 -6.190420 	 -0.360032 
H 	 -3.648981 	 7.287172 	 -0.138727 
H 	 -6.994770 	 -6.008831 	 1.462381 
H 	 6.711258 	 -6.106109 	 0.466643 
H 	 6.110935 	 0.728735 	 -2.433105 
H 	 5.366741 	 0.843731 	 -3.905600 
H 	 2.011429 	 7.453151 	 6.320558 
H 	 1.845129 	 -7.361066 	 4.670002 
H 	 1.033117 	 1.963791 	 -5.942566 
O 	 -4.613161 	 7.231761 	 4.813650 
O 	 7.194251 	 3.526479 	 -5.281651 
O 	 -2.891833 	 6.394867 	 -3.310016 
O 	 -6.595997 	 7.280025 	 2.868469 
O 	 -3.678794 	 5.502264 	 -0.251603 
O 	 -5.643972 	 4.864019 	 -2.251587 
O 	 -1.299193 	 3.189944 	 3.224433 
O 	 -3.635403 	 -1.399739 	 -2.312399 
O 	 -1.421730 	 4.549322 	 -6.944356 
O 	 -2.384066 	 -3.838048 	 -1.332547 
O 	 5.848714 	 -6.896807 	 4.220822 
O 	 -0.976883 	 -0.622763 	 -1.626969 
O 	 4.647038 	 -3.403547 	 -1.552351 
O 	 -5.568179 	 -0.891402 	 -0.172700 
O 	 2.382695 	 7.436102 	 -6.508557 
O 	 -5.671776 	 -7.353006 	 -2.087400 
O 	 5.177646 	 4.494202 	 -2.892327 
O 	 -3.109820 	 1.694735 	 -6.160121 
O 	 -0.269493 	 0.818869 	 6.056685 
O 	 3.047745 	 -0.039704 	 7.286246 
O 	 0.225503 	 -5.531094 	 6.434887 
O 	 4.182090 	 -2.737898 	 7.317082 
O 	 -5.299579 	 4.270660 	 4.477481 
O 	 -2.961880 	 -6.482762 	 2.835015 
O 	 4.147108 	 3.085560 	 1.306924 
O 	 3.110744 	 -6.881094 	 -2.673752 
O 	 0.399050 	 -4.314641 	 -3.326271 
O 	 3.002290 	 -5.279263 	 5.634459 
O 	 -4.617287 	 -3.881253 	 -5.574868 
O 	 -5.594375 	 1.350435 	 7.047828 
O 	 6.278840 	 6.869060 	 -3.755887 
O 	 -5.195350 	 1.825371 	 -1.033073 
O 	 -6.554742 	 6.049952 	 6.969798 
O 	 -4.310683 	 -0.948273 	 -5.086054 
O 	 -4.153773 	 3.468441 	 1.866979 
O 	 6.724154 	 4.026432 	 4.046268 
O 	 -3.170989 	 2.791270 	 5.630659 
O 	 3.404977 	 4.116235 	 -7.121689 
O 	 3.128566 	 1.080720 	 -1.709834 
O 	 7.088402 	 -1.691973 	 -4.236747 
O 	 2.099673 	 -4.668297 	 -5.523745 
O 	 6.352407 	 0.513020 	 -0.203239 
O 	 -2.328425 	 -3.107130 	 1.317535 
O 	 -6.088336 	 7.144444 	 -5.027641 
O 	 2.672480 	 -1.133291 	 -3.600254 
O 	 4.432775 	 5.483145 	 5.276282 
O 	 -2.861136 	 -5.747665 	 -4.652946 
O 	 -1.805707 	 -3.026199 	 -4.347770 
O 	 1.022609 	 2.102658 	 4.334723 
O 	 -2.152336 	 -0.525209 	 4.150514 
O 	 -1.162959 	 5.969840 	 2.550400 
O 	 4.886475 	 -3.679760 	 -4.878585 
O 	 7.040479 	 1.588039 	 5.662362 
O 	 4.399221 	 -2.784742 	 4.393593 
O 	 2.941828 	 3.346158 	 -4.534171 
O 	 6.798947 	 -5.855995 	 -2.120902 
O 	 -4.038092 	 4.860567 	 -6.847000 
O 	 5.220549 	 -5.928488 	 7.134536 
O 	 5.137648 	 6.601718 	 -6.390460 
O 	 4.018889 	 0.757807 	 -5.064076 
O 	 1.687086 	 -3.698807 	 0.917340 
O 	 4.213403 	 -1.381357 	 0.041808 
O 	 -6.584148 	 -5.487380 	 -6.833202 
O 	 0.542695 	 -3.069291 	 -7.096745 
O 	 -0.999298 	 -6.955677 	 -6.402065 
O 	 1.364338 	 0.799003 	 1.394352 
O 	 1.476220 	 -6.807732 	 1.662891 
O 	 -3.915029 	 0.382698 	 1.464560 
O 	 -3.826752 	 -6.428629 	 7.095463 
O 	 0.612499 	 4.328234 	 6.167945 
O 	 -0.367391 	 -5.353116 	 3.740421 
O 	 -5.829711 	 -3.686114 	 -3.209139 
O 	 -1.553226 	 1.384924 	 -3.594801 
O 	 4.957780 	 6.214890 	 -0.673832 
O 	 -1.356462 	 3.200130 	 0.083334 
O 	 -0.873919 	 5.842105 	 -0.810092 
O 	 5.252224 	 1.146937 	 3.075745 
O 	 6.342732 	 3.982056 	 7.226253 
O 	 -4.976239 	 -3.530471 	 2.614356 
O 	 2.122131 	 5.495537 	 0.825840 
O 	 0.783108 	 -1.463446 	 5.513363 
O 	 -6.053782 	 1.458385 	 -4.581555 
O 	 -1.181996 	 -0.280722 	 0.992424 
O 	 -0.133570 	 -7.034158 	 -2.564280 
O 	 -3.040375 	 2.923864 	 -2.059323 
O 	 -6.821538 	 -0.146515 	 2.789754 
O 	 4.662272 	 -5.838065 	 -0.424701 
O 	 6.650691 	 -1.157256 	 5.159843 
O 	 -6.814620 	 -4.763214 	 5.129304 
O 	 -6.713766 	 -1.349144 	 -7.306473 
O 	 2.552847 	 4.330569 	 3.421508 
O 	 6.830167 	 -3.006380 	 2.997993 
O 	 7.179597 	 3.418510 	 -0.796057 
O 	 -0.642532 	 5.807705 	 -4.601541 
O 	 -4.369008 	 -1.860232 	 4.846736 
O 	 -7.208735 	 4.752078 	 1.454688 
O 	 4.075135 	 -5.505059 	 2.638884 
O 	 -7.480833 	 -2.862878 	 -0.559354 
O 	 3.489336 	 -0.856476 	 2.605980 
O 	 0.000905 	 -1.184196 	 -4.956533 
O 	 1.166797 	 -2.376136 	 -1.483938 
O 	 0.449224 	 3.708663 	 -2.956476 
O 	 -0.727622 	 -5.932405 	 0.339277 
O 	 1.497309 	 2.965484 	 -0.354102 
O 	 -0.394824 	 -2.653690 	 3.517658 
O 	 3.464730 	 1.994142 	 5.496257 
O 	 -3.850159 	 -6.622385 	 -0.192306 
O 	 -7.501316 	 -5.486777 	 0.777065 
O 	 6.279294 	 0.838403 	 -3.417045 
O 	 1.989131 	 6.965734 	 5.417071 
O 	 0.708436 	 1.123121 	 -6.318987 
K 	 -4.441167 	 3.867173 	 -4.568167 
