333
conformation = 9
H 	 -4.976295 	 6.232955 	 5.028891 
H 	 -4.342452 	 -7.349809 	 5.640918 
H 	 6.571455 	 3.615878 	 -4.612966 
H 	 -7.362756 	 2.471761 	 -5.123736 
H 	 -2.589734 	 6.471831 	 -2.307584 
H 	 -2.928917 	 7.186283 	 -3.586464 
H 	 -7.352578 	 7.222501 	 3.453132 
H 	 -5.787369 	 7.362472 	 3.586726 
H 	 -3.814975 	 4.775084 	 0.488540 
H 	 -4.320361 	 5.166890 	 -0.944868 
H 	 -6.283336 	 4.403610 	 -1.597656 
H 	 -5.779389 	 5.725007 	 -2.173595 
H 	 -0.385401 	 2.691715 	 3.362235 
H 	 -0.935127 	 4.111436 	 3.102926 
H 	 -4.281612 	 -1.299357 	 -1.602458 
H 	 -2.726104 	 -1.057326 	 -2.084263 
H 	 -0.618177 	 4.483459 	 7.291032 
H 	 -1.056020 	 5.194115 	 -6.324517 
H 	 -2.742803 	 -3.362225 	 -1.920075 
H 	 -1.424839 	 -4.236200 	 -1.665988 
H 	 5.492208 	 7.225402 	 4.655315 
H 	 5.169762 	 -6.509807 	 3.728808 
H 	 -0.276227 	 -1.453075 	 -1.620300 
H 	 -0.844925 	 -0.091491 	 -2.396861 
H 	 4.471138 	 -3.291963 	 -2.483067 
H 	 4.282122 	 -2.767476 	 -0.965485 
H 	 -6.111015 	 -1.831049 	 -0.174582 
H 	 -5.095558 	 -0.805449 	 0.728752 
H 	 3.426076 	 7.192524 	 -6.205686 
H 	 2.181678 	 -6.730348 	 -6.044950 
H 	 -6.537243 	 -7.065326 	 -2.033319 
H 	 -5.177865 	 -7.118865 	 -1.275981 
H 	 5.483773 	 5.294950 	 -3.382294 
H 	 4.487324 	 3.999201 	 -3.420503 
H 	 -2.356995 	 1.470350 	 -5.448874 
H 	 -3.688636 	 0.789885 	 -5.999315 
H 	 0.283767 	 1.335356 	 5.291069 
H 	 -1.121567 	 0.581492 	 5.477498 
H 	 2.156357 	 0.185757 	 -7.276181 
H 	 3.249287 	 0.594429 	 6.629309 
H 	 -0.122911 	 -5.396223 	 5.474894 
H 	 0.208217 	 -4.789610 	 6.922888 
H 	 3.562091 	 -2.112541 	 7.291351 
H 	 3.702638 	 -3.679432 	 7.016262 
H 	 -4.818901 	 3.778485 	 5.256691 
H 	 -6.282374 	 4.208021 	 4.552527 
H 	 -3.348314 	 -6.773875 	 1.907460 
H 	 -3.506129 	 -7.030294 	 3.460940 
H 	 3.928739 	 3.298945 	 0.496648 
H 	 3.403920 	 3.407921 	 1.954762 
H 	 3.391441 	 7.037388 	 -2.514855 
H 	 2.236371 	 -6.970351 	 -2.885492 
H 	 1.036295 	 -4.625886 	 -4.068244 
H 	 0.216272 	 -5.340832 	 -3.109416 
H 	 3.497368 	 -5.844651 	 6.284349 
H 	 2.116061 	 -5.448188 	 5.836594 
H 	 -5.104867 	 -4.196662 	 -6.326070 
H 	 -5.194843 	 -3.774735 	 -4.822769 
H 	 -4.973136 	 1.406546 	 6.349288 
H 	 -5.259263 	 1.923413 	 -7.083467 
H 	 6.346964 	 -7.221536 	 -3.302865 
H 	 7.184816 	 6.563159 	 -4.069066 
H 	 -5.324977 	 0.770323 	 -1.220230 
H 	 -6.017265 	 2.147269 	 -1.137094 
H 	 -6.753194 	 6.212919 	 -7.043641 
H 	 -7.045079 	 5.287356 	 6.768665 
H 	 -4.276726 	 -1.908127 	 -5.430166 
H 	 -3.900334 	 -1.088078 	 -4.153172 
H 	 -3.470419 	 3.287505 	 2.562215 
H 	 -4.889863 	 3.623177 	 2.441667 
H 	 6.585896 	 2.963027 	 4.251835 
H 	 5.991746 	 4.370641 	 4.376058 
H 	 -2.758213 	 2.787571 	 6.546993 
H 	 -2.416050 	 2.940881 	 5.060090 
H 	 2.565093 	 3.977538 	 7.254214 
H 	 4.036251 	 3.411232 	 7.357375 
H 	 2.764606 	 0.675553 	 -0.943851 
H 	 2.852333 	 0.310336 	 -2.364197 
H 	 7.039690 	 -0.745602 	 -4.146399 
H 	 6.248326 	 -1.996444 	 -4.223984 
H 	 1.614802 	 -4.170616 	 -6.310919 
H 	 2.894643 	 -4.322466 	 -5.249559 
H 	 6.518023 	 1.506366 	 -0.095388 
H 	 7.180573 	 0.099765 	 0.090759 
H 	 -2.437730 	 -3.018045 	 0.315749 
H 	 -1.850934 	 -3.993369 	 1.411233 
H 	 -5.623553 	 -7.470183 	 -4.284557 
H 	 -6.145056 	 -7.143822 	 -5.721715 
H 	 2.699796 	 -1.828825 	 -2.785226 
H 	 1.824356 	 -1.379121 	 -3.883131 
H 	 4.740782 	 5.229681 	 6.208657 
H 	 3.601075 	 5.973233 	 5.416489 
H 	 -3.656935 	 -5.402491 	 -4.773551 
H 	 -2.382236 	 -6.021096 	 -5.522080 
H 	 -1.146861 	 -3.664507 	 -3.915162 
H 	 -2.388622 	 -3.758732 	 -4.860113 
H 	 2.601792 	 1.940116 	 5.069721 
H 	 1.286536 	 1.470154 	 3.531231 
H 	 -2.680691 	 -1.209085 	 4.589134 
H 	 -2.834465 	 -0.094581 	 3.706132 
H 	 -0.355958 	 6.480134 	 2.456712 
H 	 -1.814752 	 6.360068 	 2.950011 
H 	 5.426916 	 -4.496894 	 -5.327146 
H 	 4.698535 	 -3.132999 	 -5.569367 
H 	 6.635342 	 0.663371 	 5.565813 
H 	 -6.961260 	 1.400885 	 6.147297 
H 	 5.066193 	 -2.399057 	 4.858270 
H 	 3.977301 	 -3.396153 	 5.088633 
H 	 3.194790 	 2.361153 	 -4.583221 
H 	 2.961866 	 3.556053 	 -5.474911 
H 	 -7.486685 	 -5.133847 	 -1.952203 
H 	 6.142561 	 -5.926132 	 -1.404373 
H 	 -4.496691 	 5.263124 	 -7.504616 
H 	 -2.995283 	 4.775132 	 -7.159466 
H 	 5.351492 	 -6.956988 	 7.273010 
H 	 5.616693 	 -5.878425 	 6.216828 
H 	 4.857331 	 5.562575 	 -6.367557 
H 	 5.491815 	 6.705058 	 -5.477367 
H 	 4.059275 	 0.496786 	 -6.069982 
H 	 3.553490 	 -0.126670 	 -4.758346 
H 	 1.097240 	 -3.394695 	 1.493371 
H 	 1.642879 	 -4.787491 	 0.968307 
H 	 4.970101 	 -0.730716 	 -0.056712 
H 	 4.028798 	 -1.506407 	 0.992828 
H 	 -6.149649 	 -5.918314 	 7.180856 
H 	 -7.493975 	 -5.501477 	 -7.056414 
H 	 0.403090 	 -2.572217 	 -6.371070 
H 	 0.857605 	 -2.591956 	 7.005069 
H 	 -0.475280 	 -6.350342 	 -7.029889 
H 	 -0.314550 	 7.333521 	 -6.036034 
H 	 0.639836 	 0.179463 	 1.130254 
H 	 2.044464 	 0.176490 	 1.792458 
H 	 2.412608 	 -6.474710 	 1.911343 
H 	 1.766118 	 -7.373376 	 0.849844 
H 	 -2.921912 	 0.155515 	 1.081451 
H 	 -4.141714 	 1.108700 	 1.152847 
H 	 -4.126506 	 -6.063101 	 -7.030406 
H 	 -3.197626 	 -7.187907 	 -7.483144 
H 	 0.381226 	 3.601755 	 5.510423 
H 	 0.961282 	 5.053189 	 5.774414 
H 	 -1.206863 	 -5.847411 	 3.408109 
H 	 -0.521892 	 -4.435529 	 3.755547 
H 	 -6.496991 	 -3.100501 	 -3.261436 
H 	 -5.173325 	 -3.330672 	 -2.577802 
H 	 -0.917952 	 2.047905 	 -3.676940 
H 	 -2.208468 	 1.685094 	 -2.924129 
H 	 4.989529 	 5.335670 	 -1.261290 
H 	 4.759359 	 5.765565 	 0.157141 
H 	 -0.400419 	 2.810098 	 -0.013263 
H 	 -1.443481 	 3.046399 	 1.067800 
H 	 -0.257965 	 5.404094 	 -0.115691 
H 	 -1.500412 	 5.069187 	 -0.739176 
H 	 6.208889 	 0.684179 	 3.011144 
H 	 5.229667 	 1.782260 	 2.436490 
H 	 6.736461 	 3.011360 	 6.772147 
H 	 6.564070 	 3.807466 	 -6.779440 
H 	 -4.116670 	 -3.359601 	 1.999501 
H 	 -4.690730 	 -4.449553 	 3.030315 
H 	 2.208483 	 5.235584 	 1.818136 
H 	 2.106113 	 4.480564 	 0.455791 
H 	 0.469221 	 -0.659668 	 5.837868 
H 	 1.729765 	 -1.378083 	 5.252741 
H 	 -5.521915 	 0.612419 	 -4.770310 
H 	 -6.524991 	 1.256224 	 -3.706239 
H 	 -1.148100 	 -0.504940 	 0.033162 
H 	 -1.169431 	 -1.305086 	 1.339313 
H 	 -0.343899 	 7.080915 	 -3.136187 
H 	 0.157576 	 7.297194 	 -1.788149 
H 	 -3.838550 	 2.267187 	 -1.879635 
H 	 -2.525198 	 2.690301 	 -1.224184 
H 	 -5.943071 	 -0.078704 	 3.186136 
H 	 -6.772064 	 -1.214371 	 2.556087 
H 	 4.373703 	 -5.077330 	 -0.903324 
H 	 4.234250 	 -6.735167 	 -0.855069 
H 	 7.345732 	 -1.317618 	 5.790581 
H 	 7.193062 	 -1.159492 	 4.357980 
H 	 -7.160041 	 -4.380910 	 4.479311 
H 	 -7.137173 	 -5.825503 	 5.092658 
H 	 -5.964174 	 -0.704665 	 -7.307386 
H 	 -6.813852 	 -1.408511 	 -6.318033 
H 	 3.264610 	 4.272918 	 4.092845 
H 	 1.900163 	 3.630457 	 3.761771 
H 	 6.024895 	 -3.429820 	 3.064715 
H 	 7.161435 	 -3.520408 	 2.021805 
H 	 6.425881 	 3.566111 	 -1.411190 
H 	 7.197844 	 3.859805 	 -0.042149 
H 	 -0.195717 	 4.960017 	 -4.364346 
H 	 -1.640633 	 5.688326 	 -4.141930 
H 	 -4.253249 	 -2.666063 	 5.487401 
H 	 -4.652481 	 -2.512326 	 4.036877 
H 	 -7.468565 	 4.604221 	 2.373284 
H 	 -6.844609 	 5.559214 	 1.518910 
H 	 4.605337 	 -5.281813 	 1.838927 
H 	 3.806631 	 -4.856012 	 3.200678 
H 	 -7.250309 	 -3.919620 	 -0.241013 
H 	 6.528142 	 -3.015245 	 -0.914351 
H 	 4.182816 	 -0.240414 	 2.891241 
H 	 3.560692 	 -1.656601 	 3.238740 
H 	 -0.727393 	 -1.575871 	 -4.562762 
H 	 0.016664 	 -0.277756 	 -5.283183 
H 	 0.935125 	 -3.233501 	 -2.100102 
H 	 1.440220 	 -2.837383 	 -0.634725 
H 	 0.476970 	 3.755645 	 -2.078302 
H 	 1.482305 	 3.512962 	 -3.212224 
H 	 -0.020395 	 -6.247406 	 0.913204 
H 	 -0.262253 	 -6.123929 	 -0.601034 
H 	 1.595844 	 2.211756 	 0.300100 
H 	 2.070459 	 2.507239 	 -1.114637 
H 	 -1.061638 	 -2.075155 	 3.122070 
H 	 0.085476 	 -2.168484 	 4.179038 
H 	 4.112240 	 1.517273 	 4.951294 
H 	 0.244320 	 1.222848 	 -7.189772 
H 	 -2.945760 	 -6.371651 	 -0.429472 
H 	 -3.710648 	 7.203276 	 -0.123894 
H 	 -6.836260 	 -5.810419 	 1.444650 
H 	 6.933071 	 -6.312012 	 0.515518 
H 	 6.295870 	 0.522436 	 -2.404259 
H 	 5.377993 	 0.831413 	 -3.734567 
H 	 2.008413 	 7.385023 	 6.288880 
H 	 1.841361 	 -7.370299 	 4.815273 
H 	 1.182740 	 1.831340 	 -6.011967 
O 	 -4.558299 	 7.109761 	 4.800399 
O 	 7.229031 	 3.399249 	 -5.290419 
O 	 -2.910862 	 6.279061 	 -3.208197 
O 	 -6.509973 	 7.230695 	 2.905121 
O 	 -3.596468 	 5.362356 	 -0.271988 
O 	 -5.587737 	 4.753510 	 -2.249913 
O 	 -1.234789 	 3.176410 	 3.208114 
O 	 -3.617968 	 -1.459753 	 -2.315249 
O 	 -1.371736 	 4.458989 	 -6.961661 
O 	 -2.300323 	 -3.971417 	 -1.308613 
O 	 5.939760 	 -6.903533 	 4.230722 
O 	 -0.927710 	 -0.692426 	 -1.618575 
O 	 4.653004 	 -3.484239 	 -1.535054 
O 	 -5.526843 	 -1.060458 	 -0.137090 
O 	 2.472624 	 7.298198 	 -6.443017 
O 	 -5.596856 	 -7.468879 	 -2.118597 
O 	 5.220129 	 4.416567 	 -2.920174 
O 	 -3.079422 	 1.559621 	 -6.128743 
O 	 -0.246527 	 0.747666 	 5.987357 
O 	 3.005380 	 -0.138477 	 7.247130 
O 	 0.343219 	 -5.567266 	 6.344915 
O 	 4.234217 	 -2.835767 	 7.258835 
O 	 -5.289915 	 4.189666 	 4.449302 
O 	 -2.931800 	 -6.550214 	 2.789953 
O 	 4.159427 	 3.003001 	 1.383413 
O 	 3.194772 	 -6.951638 	 -2.680890 
O 	 0.441812 	 -4.432775 	 -3.314076 
O 	 3.073703 	 -5.277931 	 5.628537 
O 	 -4.565918 	 -3.893174 	 -5.582206 
O 	 -5.492656 	 1.241322 	 7.141758 
O 	 6.265666 	 6.766130 	 -3.782739 
O 	 -5.174147 	 1.728720 	 -1.054173 
O 	 -6.411851 	 6.015145 	 6.971675 
O 	 -4.251308 	 -0.997099 	 -5.052368 
O 	 -4.155989 	 3.330586 	 1.894114 
O 	 6.766933 	 3.919291 	 4.020166 
O 	 -3.137348 	 2.671243 	 5.646410 
O 	 3.374329 	 3.983636 	 -7.066424 
O 	 3.198293 	 0.973611 	 -1.717664 
O 	 7.191979 	 -1.707190 	 -4.247117 
O 	 2.076973 	 -4.710694 	 -5.554030 
O 	 6.373883 	 0.500719 	 -0.219339 
O 	 -2.283143 	 -3.122140 	 1.291674 
O 	 -6.068044 	 7.008422 	 -5.071100 
O 	 2.767697 	 -1.245928 	 -3.550159 
O 	 4.464417 	 5.434336 	 5.304595 
O 	 -2.817366 	 -5.869753 	 -4.705319 
O 	 -1.807452 	 -3.126635 	 -4.366039 
O 	 1.097354 	 2.023629 	 4.316821 
O 	 -2.119839 	 -0.614581 	 4.111746 
O 	 -1.087183 	 5.848271 	 2.576314 
O 	 4.888525 	 -3.784138 	 -4.867157 
O 	 7.083999 	 1.548523 	 5.660066 
O 	 4.393872 	 -2.878528 	 4.384917 
O 	 2.948220 	 3.297855 	 -4.563690 
O 	 6.801520 	 -5.882679 	 -2.113969 
O 	 -3.971493 	 4.722378 	 -6.902663 
O 	 5.345210 	 -6.000064 	 7.135693 
O 	 5.166346 	 6.482461 	 -6.368942 
O 	 4.010898 	 0.644738 	 -5.076973 
O 	 1.712936 	 -3.828560 	 0.906125 
O 	 4.260506 	 -1.462317 	 0.047538 
O 	 -6.540461 	 -5.563584 	 -6.884895 
O 	 0.594920 	 -3.194826 	 -7.123521 
O 	 -0.983450 	 -6.996626 	 -6.498230 
O 	 1.384438 	 0.745498 	 1.377325 
O 	 1.540116 	 -6.889636 	 1.686878 
O 	 -3.836402 	 0.225085 	 1.455520 
O 	 -3.801712 	 -6.497922 	 7.070633 
O 	 0.606984 	 4.260056 	 6.169712 
O 	 -0.353022 	 -5.439828 	 3.756816 
O 	 -5.758768 	 -3.775761 	 -3.190507 
O 	 -1.547367 	 1.324288 	 -3.632594 
O 	 5.049117 	 6.103870 	 -0.677008 
O 	 -1.314119 	 3.085871 	 0.085030 
O 	 -0.809618 	 5.782071 	 -0.825711 
O 	 5.296313 	 1.105396 	 3.120750 
O 	 6.360969 	 3.856125 	 7.173162 
O 	 -4.870017 	 -3.623040 	 2.577418 
O 	 2.192927 	 5.385101 	 0.841425 
O 	 0.821032 	 -1.582294 	 5.544492 
O 	 -6.006545 	 1.416635 	 -4.495025 
O 	 -1.109004 	 -0.346515 	 1.052688 
O 	 -0.066258 	 -7.077780 	 -2.576034 
O 	 -3.033216 	 2.825759 	 -2.067649 
O 	 -6.816835 	 -0.266428 	 2.758491 
O 	 4.662026 	 -5.964533 	 -0.476331 
O 	 6.608163 	 -1.253354 	 5.128746 
O 	 -6.726313 	 -4.941165 	 5.134659 
O 	 -6.638095 	 -1.418839 	 -7.301316 
O 	 2.592114 	 4.278933 	 3.415921 
O 	 6.941832 	 -3.205551 	 2.939440 
O 	 7.176505 	 3.305028 	 -0.835703 
O 	 -0.677288 	 5.770603 	 -4.513183 
O 	 -4.358572 	 -1.940251 	 4.812346 
O 	 -7.138012 	 4.626734 	 1.449828 
O 	 4.171829 	 -5.598248 	 2.676456 
O 	 -7.462165 	 -2.993642 	 -0.568724 
O 	 3.509437 	 -0.892838 	 2.601189 
O 	 0.081859 	 -1.251571 	 -4.959470 
O 	 1.166882 	 -2.455546 	 -1.517283 
O 	 0.506877 	 3.605345 	 -3.037357 
O 	 -0.713813 	 -5.974166 	 0.253316 
O 	 1.568515 	 2.914065 	 -0.372025 
O 	 -0.381447 	 -2.716929 	 3.510907 
O 	 3.474227 	 1.894266 	 5.592014 
O 	 -3.818418 	 -6.693131 	 -0.171922 
O 	 -7.470452 	 -5.524794 	 0.744719 
O 	 6.344925 	 0.757131 	 -3.395806 
O 	 1.993964 	 6.808289 	 5.436321 
O 	 0.812066 	 1.030836 	 -6.379368 
K 	 -4.381417 	 3.801959 	 -4.557556 
