333
conformation = 47
H 	 -4.674502 	 6.250192 	 5.087964 
H 	 -4.677664 	 -7.432686 	 5.886209 
H 	 6.668550 	 3.273405 	 -4.300426 
H 	 -7.036874 	 2.814138 	 -5.204150 
H 	 -2.946422 	 6.226239 	 -2.414078 
H 	 -3.044262 	 7.332482 	 -3.465804 
H 	 -7.457840 	 7.455364 	 3.470098 
H 	 -5.923669 	 7.087780 	 3.494705 
H 	 -3.800221 	 4.939943 	 0.701463 
H 	 -4.269878 	 5.006996 	 -0.737064 
H 	 -6.454852 	 4.343911 	 -1.771118 
H 	 -5.830803 	 5.812881 	 -2.086167 
H 	 -0.515665 	 2.744469 	 3.879624 
H 	 -1.232706 	 4.008675 	 3.350461 
H 	 -4.226384 	 -1.281934 	 -1.400223 
H 	 -2.724473 	 -1.290832 	 -1.911250 
H 	 -0.774939 	 4.511628 	 7.354901 
H 	 -1.179009 	 5.000281 	 -6.051141 
H 	 -2.753564 	 -3.020182 	 -1.791934 
H 	 -1.505213 	 -3.970419 	 -1.583811 
H 	 5.276745 	 7.075286 	 4.645546 
H 	 5.237963 	 -6.526499 	 3.793701 
H 	 -0.148113 	 -1.215858 	 -1.613724 
H 	 -1.012959 	 0.059747 	 -2.174209 
H 	 4.391611 	 -3.320838 	 -2.370733 
H 	 4.357425 	 -2.650483 	 -0.938353 
H 	 -6.123726 	 -1.514745 	 0.227694 
H 	 -4.891448 	 -0.542409 	 0.545899 
H 	 3.233623 	 7.229863 	 -6.421868 
H 	 2.312258 	 -6.482891 	 -6.187611 
H 	 -6.498445 	 -6.824806 	 -1.652332 
H 	 -4.967370 	 -6.873417 	 -1.523906 
H 	 5.520070 	 5.199639 	 -3.164965 
H 	 4.391242 	 4.262469 	 -3.232644 
H 	 -2.271154 	 1.883101 	 -5.512852 
H 	 -3.084082 	 0.710656 	 -5.941317 
H 	 0.160211 	 1.294840 	 5.565607 
H 	 -1.191519 	 0.615891 	 5.931314 
H 	 2.322240 	 0.264255 	 -7.110347 
H 	 3.452435 	 0.516406 	 6.688459 
H 	 -0.203025 	 -5.590056 	 5.746197 
H 	 -0.171141 	 -4.787358 	 7.042518 
H 	 3.715313 	 -1.893328 	 7.458485 
H 	 3.526279 	 -3.487757 	 7.255466 
H 	 -4.926239 	 3.506352 	 5.201278 
H 	 -6.242560 	 4.130445 	 4.704906 
H 	 -3.496173 	 -6.513251 	 2.223101 
H 	 -3.493357 	 -6.920058 	 3.762632 
H 	 3.641474 	 2.770993 	 0.589954 
H 	 3.566144 	 3.415998 	 1.949824 
H 	 3.001477 	 7.095955 	 -2.098068 
H 	 2.166393 	 -6.796744 	 -2.923530 
H 	 1.148374 	 -4.369192 	 -3.891279 
H 	 0.253366 	 -5.295393 	 -2.972577 
H 	 3.580879 	 -5.635380 	 6.477646 
H 	 2.028246 	 -5.343874 	 6.117895 
H 	 -5.452941 	 -4.137602 	 -6.009421 
H 	 -5.062611 	 -4.059770 	 -4.537817 
H 	 -4.781181 	 1.212043 	 6.581632 
H 	 -5.358369 	 1.966553 	 -7.147349 
H 	 6.363773 	 -7.269305 	 -3.045935 
H 	 7.255831 	 6.958936 	 -4.009483 
H 	 -5.533293 	 0.882064 	 -0.588332 
H 	 -5.959764 	 2.382545 	 -0.607656 
H 	 -6.559289 	 5.941206 	 -6.852334 
H 	 -7.332376 	 5.182709 	 6.932044 
H 	 -4.857823 	 -1.718533 	 -5.469900 
H 	 -4.125949 	 -1.321213 	 -4.141047 
H 	 -3.221244 	 3.198442 	 2.342558 
H 	 -4.531088 	 3.794827 	 2.808479 
H 	 6.748799 	 3.210991 	 4.663195 
H 	 5.968512 	 4.509906 	 4.462406 
H 	 -2.614173 	 2.442466 	 6.520369 
H 	 -2.604120 	 2.981947 	 4.962290 
H 	 2.553117 	 4.340515 	 -7.365147 
H 	 3.593898 	 3.338412 	 7.263315 
H 	 3.368514 	 0.338791 	 -1.015466 
H 	 2.861837 	 0.574583 	 -2.415096 
H 	 6.756352 	 -1.093861 	 -3.545025 
H 	 6.211013 	 -2.418881 	 -4.289336 
H 	 1.975015 	 -4.045723 	 -5.929154 
H 	 3.092094 	 -4.508841 	 -4.986993 
H 	 6.610775 	 1.311471 	 -0.127035 
H 	 7.226416 	 -0.015940 	 0.135422 
H 	 -2.318498 	 -3.651685 	 0.531576 
H 	 -1.899316 	 -4.002412 	 1.916174 
H 	 -5.624854 	 7.334543 	 -3.961352 
H 	 -6.054998 	 -6.898626 	 -5.379423 
H 	 2.270184 	 -1.511796 	 -2.643756 
H 	 1.696761 	 -1.173959 	 -4.052654 
H 	 4.706367 	 4.948737 	 6.096951 
H 	 3.628358 	 5.974372 	 5.474150 
H 	 -3.416395 	 -5.331205 	 -5.140642 
H 	 -2.115548 	 -6.096431 	 -4.952461 
H 	 -1.171405 	 -3.833114 	 -4.104378 
H 	 -2.554625 	 -3.458136 	 -4.597046 
H 	 2.607548 	 1.907395 	 5.119998 
H 	 1.036916 	 1.661653 	 3.579911 
H 	 -3.037824 	 -0.904539 	 4.544439 
H 	 -2.188762 	 0.099404 	 3.609576 
H 	 -0.406768 	 6.562708 	 2.573810 
H 	 -1.918784 	 6.653007 	 2.489285 
H 	 5.463880 	 -4.560663 	 -4.682840 
H 	 4.896956 	 -3.348876 	 -5.727302 
H 	 6.675740 	 0.597857 	 5.599475 
H 	 -7.146272 	 1.326076 	 6.350275 
H 	 5.172203 	 -2.357291 	 5.011560 
H 	 4.032192 	 -3.559758 	 5.065324 
H 	 3.471390 	 2.365398 	 -4.506058 
H 	 3.125587 	 3.811223 	 -5.198400 
H 	 7.086437 	 -5.054540 	 -2.258622 
H 	 6.082654 	 -5.919087 	 -1.416700 
H 	 -4.639975 	 5.407283 	 -7.249491 
H 	 -3.198394 	 4.722959 	 -7.033038 
H 	 5.307696 	 -6.873320 	 -7.238511 
H 	 5.643179 	 -5.988278 	 6.439783 
H 	 5.012536 	 5.636342 	 -6.487662 
H 	 5.408508 	 6.641023 	 -5.340238 
H 	 3.851767 	 0.397783 	 -5.786532 
H 	 3.605889 	 0.121111 	 -4.296398 
H 	 1.375610 	 -3.232029 	 1.895684 
H 	 1.176322 	 -4.480521 	 1.032166 
H 	 4.948759 	 -0.773879 	 0.211646 
H 	 3.977358 	 -1.385240 	 1.145457 
H 	 -6.563568 	 -5.429864 	 7.292308 
H 	 -7.564132 	 -5.573574 	 -6.404853 
H 	 0.054899 	 -2.536195 	 -6.281868 
H 	 0.414116 	 -2.525505 	 7.137739 
H 	 -0.433577 	 -7.029416 	 -6.940200 
H 	 -0.452316 	 7.224969 	 -5.533936 
H 	 0.481416 	 0.332568 	 1.574614 
H 	 1.957298 	 -0.076149 	 1.736011 
H 	 2.128375 	 -6.411050 	 2.308456 
H 	 1.749855 	 7.101944 	 1.512572 
H 	 -3.035920 	 0.230963 	 1.467517 
H 	 -4.142922 	 1.452488 	 1.509253 
H 	 -4.127439 	 -5.932071 	 -6.885508 
H 	 -2.993589 	 -6.928118 	 -7.228524 
H 	 0.885380 	 3.513828 	 5.621954 
H 	 0.867366 	 5.060010 	 5.704015 
H 	 -1.196904 	 -5.842302 	 3.564416 
H 	 -0.373447 	 -4.454713 	 3.748420 
H 	 -6.447204 	 -2.897405 	 -3.213440 
H 	 -5.176185 	 -3.365906 	 -2.548522 
H 	 -0.608213 	 1.764995 	 -3.341455 
H 	 -2.028779 	 1.873987 	 -2.857512 
H 	 4.885347 	 5.403224 	 -1.098886 
H 	 4.436401 	 5.998986 	 0.293950 
H 	 -0.417094 	 3.101862 	 0.085870 
H 	 -1.492858 	 3.285053 	 1.215791 
H 	 -0.380210 	 5.653795 	 0.151829 
H 	 -1.812231 	 5.571611 	 -0.384436 
H 	 6.212895 	 0.865353 	 2.970103 
H 	 4.946083 	 1.569632 	 2.337142 
H 	 6.168028 	 3.205451 	 6.766852 
H 	 6.553819 	 3.627316 	 -6.577611 
H 	 -4.223917 	 -3.720465 	 2.312012 
H 	 -5.019429 	 -4.351629 	 3.393451 
H 	 2.084275 	 4.917891 	 1.783231 
H 	 1.850056 	 4.812052 	 0.237099 
H 	 0.338449 	 -0.651707 	 5.893196 
H 	 1.788731 	 -1.242335 	 5.893340 
H 	 -5.458809 	 0.489481 	 -4.775149 
H 	 -6.654276 	 1.057176 	 -3.917174 
H 	 -1.100882 	 -0.300680 	 0.098569 
H 	 -1.452765 	 -1.314563 	 1.203273 
H 	 -0.003835 	 7.266699 	 -3.246892 
H 	 -0.638811 	 7.173013 	 -1.824789 
H 	 -3.827540 	 2.669284 	 -1.444508 
H 	 -2.350275 	 3.192393 	 -1.331948 
H 	 -5.843339 	 0.104051 	 2.584457 
H 	 -6.839715 	 -1.101952 	 2.727145 
H 	 4.474992 	 -4.947410 	 -0.616209 
H 	 4.156078 	 -6.444502 	 -0.640066 
H 	 7.123059 	 -1.508787 	 6.231932 
H 	 -7.382659 	 -1.008682 	 4.871939 
H 	 -7.259686 	 -3.999993 	 4.605641 
H 	 -7.041699 	 -5.557674 	 4.748124 
H 	 -6.443459 	 -0.516336 	 -7.197824 
H 	 -7.414627 	 -1.427881 	 -6.470015 
H 	 3.264182 	 4.596743 	 4.091893 
H 	 2.244534 	 3.423410 	 3.971671 
H 	 5.813279 	 -2.880146 	 3.359609 
H 	 6.987084 	 -3.636742 	 2.548549 
H 	 6.553900 	 3.741355 	 -1.198935 
H 	 7.268652 	 4.047949 	 0.203801 
H 	 -0.250503 	 5.051142 	 -3.811399 
H 	 -1.328546 	 6.108645 	 -4.172963 
H 	 -4.649457 	 -2.628059 	 5.675089 
H 	 -4.618841 	 -2.279196 	 4.085358 
H 	 7.212095 	 4.214817 	 2.311581 
H 	 -7.143988 	 5.641336 	 1.916385 
H 	 4.168820 	 -5.473516 	 1.698879 
H 	 3.855266 	 -4.569090 	 2.932628 
H 	 -7.428471 	 -3.713757 	 0.120346 
H 	 6.564311 	 -2.906702 	 -0.790004 
H 	 4.134793 	 -0.209138 	 2.860593 
H 	 3.756590 	 -1.664589 	 3.401492 
H 	 -0.910669 	 -1.746589 	 -4.607014 
H 	 -0.149537 	 -0.371769 	 -5.226614 
H 	 0.947836 	 -3.193291 	 -1.925036 
H 	 1.329151 	 -2.831248 	 -0.451747 
H 	 0.548500 	 4.025473 	 -1.873450 
H 	 1.372261 	 3.565055 	 -3.101126 
H 	 0.020906 	 -6.369230 	 1.074094 
H 	 -0.425398 	 -5.925369 	 -0.303872 
H 	 1.353113 	 2.119538 	 0.528931 
H 	 1.794905 	 2.316416 	 -0.938363 
H 	 -1.157146 	 -2.210837 	 3.626408 
H 	 0.177620 	 -2.484856 	 4.425616 
H 	 4.145653 	 2.175316 	 4.774917 
H 	 0.169685 	 1.155215 	 -6.988400 
H 	 -3.062665 	 -6.104546 	 -0.121573 
H 	 -3.522451 	 7.265969 	 -0.065414 
H 	 -7.188226 	 -6.391289 	 1.488395 
H 	 6.579940 	 -5.774853 	 0.575250 
H 	 5.697864 	 0.835408 	 -2.457701 
H 	 5.690356 	 0.824833 	 -4.054514 
H 	 1.893557 	 7.352097 	 6.388586 
H 	 1.937089 	 -7.197388 	 4.922467 
H 	 0.739432 	 1.992552 	 -5.746670 
O 	 -4.611467 	 7.228811 	 4.920912 
O 	 7.242291 	 3.523713 	 -5.073362 
O 	 -2.833519 	 6.383383 	 -3.347928 
O 	 -6.673846 	 7.203186 	 2.893158 
O 	 -3.743904 	 5.519225 	 -0.087347 
O 	 -5.655397 	 4.840057 	 -2.123628 
O 	 -1.369643 	 3.040782 	 3.388843 
O 	 -3.638725 	 -1.494226 	 -2.156129 
O 	 -1.463103 	 4.494980 	 -6.813800 
O 	 -2.426174 	 -3.802083 	 -1.282387 
O 	 5.805514 	 -7.063803 	 4.375926 
O 	 -0.977872 	 -0.681542 	 -1.546062 
O 	 4.709556 	 -3.440647 	 -1.461416 
O 	 -5.566561 	 -0.812322 	 -0.122316 
O 	 2.302173 	 -7.433691 	 -6.506431 
O 	 -5.720859 	 -7.329126 	 -1.950356 
O 	 5.182007 	 4.397853 	 -2.722063 
O 	 -3.077960 	 1.692414 	 -6.067822 
O 	 -0.281677 	 0.732529 	 6.286020 
O 	 3.167682 	 -0.088406 	 7.460089 
O 	 0.151525 	 -5.642199 	 6.664532 
O 	 4.170494 	 -2.786270 	 -7.326368 
O 	 -5.256321 	 4.230633 	 4.651666 
O 	 -2.937318 	 -6.586449 	 3.047377 
O 	 4.224572 	 3.020101 	 1.317746 
O 	 3.038144 	 -6.969371 	 -2.557342 
O 	 0.404999 	 -4.324862 	 -3.221111 
O 	 2.933373 	 -5.368316 	 5.759626 
O 	 -4.671122 	 -4.009841 	 -5.461517 
O 	 -5.619072 	 1.347692 	 7.025931 
O 	 6.353272 	 6.827571 	 -3.640077 
O 	 -5.218382 	 1.768767 	 -0.890689 
O 	 -6.706971 	 5.929589 	 7.092280 
O 	 -4.375517 	 -1.021888 	 -5.003732 
O 	 -4.050831 	 3.472328 	 1.960827 
O 	 6.725483 	 4.005933 	 4.183713 
O 	 -3.174273 	 2.768644 	 5.752393 
O 	 3.493575 	 4.157960 	 -7.108607 
O 	 3.053777 	 1.076934 	 -1.553935 
O 	 7.029881 	 -1.855155 	 -4.126095 
O 	 2.217455 	 -4.784968 	 -5.328199 
O 	 6.395796 	 0.355097 	 -0.059253 
O 	 -2.335245 	 -3.286975 	 1.444291 
O 	 -6.057536 	 7.185868 	 -4.833777 
O 	 2.546084 	 -1.132975 	 -3.546254 
O 	 4.445114 	 5.430513 	 5.334397 
O 	 -2.888251 	 -5.774849 	 -4.433401 
O 	 -1.758682 	 -3.029632 	 -4.190721 
O 	 0.984614 	 2.055710 	 4.469558 
O 	 -2.117846 	 -0.560545 	 4.298640 
O 	 -1.202160 	 5.992732 	 2.633864 
O 	 4.899292 	 -3.723203 	 -4.809388 
O 	 6.932725 	 1.493712 	 5.768192 
O 	 4.452371 	 -2.827858 	 4.522329 
O 	 2.991055 	 3.240210 	 -4.340455 
O 	 6.878474 	 -5.958854 	 -2.026687 
O 	 -4.104074 	 4.903755 	 -6.678937 
O 	 5.122600 	 -5.971516 	 7.271880 
O 	 5.116918 	 6.572121 	 -6.281236 
O 	 4.085726 	 0.755479 	 -4.925254 
O 	 1.728206 	 -3.685824 	 1.124135 
O 	 4.189349 	 -1.400380 	 0.159487 
O 	 -6.627991 	 -5.608880 	 -6.640250 
O 	 0.546384 	 -3.017263 	 -6.937890 
O 	 -0.988822 	 -7.071705 	 -6.149493 
O 	 1.418506 	 0.717355 	 1.532179 
O 	 1.493415 	 -6.906662 	 1.762289 
O 	 -3.954775 	 0.488285 	 1.658195 
O 	 -3.795515 	 -6.499953 	 7.281821 
O 	 0.707717 	 4.271096 	 6.260579 
O 	 -0.329725 	 -5.419264 	 3.828301 
O 	 -5.904459 	 -3.738838 	 -3.106012 
O 	 -1.464346 	 1.319061 	 -3.437111 
O 	 4.870804 	 6.221064 	 -0.533127 
O 	 -1.371684 	 3.184625 	 0.234782 
O 	 -0.874698 	 5.761379 	 -0.682383 
O 	 5.264498 	 1.052026 	 3.131069 
O 	 6.330737 	 3.986021 	 7.380792 
O 	 -5.072285 	 -3.572349 	 2.768868 
O 	 2.066374 	 5.500783 	 0.940864 
O 	 0.874388 	 -1.480890 	 5.640587 
O 	 -6.016590 	 1.303219 	 -4.585717 
O 	 -1.270096 	 -0.345932 	 1.052560 
O 	 -0.121593 	 -7.127728 	 -2.415954 
O 	 -3.000813 	 2.879793 	 -1.939455 
O 	 -6.767957 	 -0.148379 	 2.959563 
O 	 4.711746 	 -5.797639 	 -0.205470 
O 	 6.708753 	 -1.194977 	 5.387517 
O 	 -6.909445 	 -4.700901 	 5.235131 
O 	 -6.780499 	 -1.431550 	 -7.192490 
O 	 2.567547 	 4.230912 	 3.527526 
O 	 6.760970 	 -2.895890 	 3.176993 
O 	 7.247057 	 3.381506 	 -0.608502 
O 	 -0.515863 	 5.686171 	 -4.555642 
O 	 -4.365110 	 -1.930870 	 5.024521 
O 	 -7.261494 	 4.750043 	 1.557940 
O 	 3.978903 	 -5.536280 	 2.695392 
O 	 -7.451478 	 -2.884084 	 -0.385858 
O 	 3.505295 	 -0.992199 	 2.736795 
O 	 -0.045703 	 -1.258865 	 -4.837902 
O 	 1.253947 	 -2.440653 	 -1.332671 
O 	 0.405067 	 3.669119 	 -2.769962 
O 	 -0.726501 	 -6.014568 	 0.607297 
O 	 1.474641 	 2.845367 	 -0.179437 
O 	 -0.317930 	 -2.763198 	 3.580603 
O 	 3.517582 	 1.982557 	 5.483544 
O 	 -3.812192 	 -6.704091 	 -0.067847 
O 	 -7.492566 	 -5.619025 	 0.992858 
O 	 6.251859 	 0.799309 	 -3.290807 
O 	 2.044336 	 6.942598 	 5.508118 
O 	 0.613841 	 1.118328 	 -6.093053 
K 	 -4.468854 	 3.797529 	 -4.434612 
