333
conformation = 44
H 	 7.224922 	 -0.991198 	 5.275859 
H 	 7.125682 	 0.295266 	 6.038589 
H 	 3.657612 	 -3.984873 	 -4.138411 
H 	 4.878486 	 -4.457829 	 -5.031704 
H 	 -5.928280 	 -0.995569 	 -2.144777 
H 	 -6.148208 	 0.085481 	 -3.235892 
H 	 4.499728 	 0.205817 	 3.709075 
H 	 6.022968 	 -0.089335 	 3.654264 
H 	 -6.777864 	 -2.317201 	 0.891042 
H 	 -7.282019 	 -2.282110 	 -0.569246 
H 	 5.420717 	 -2.828611 	 -1.606615 
H 	 5.950776 	 -1.453174 	 -1.855795 
H 	 -3.638739 	 -4.515027 	 4.086567 
H 	 -4.191923 	 -3.218252 	 3.553282 
H 	 -7.316949 	 6.252279 	 -1.216218 
H 	 -5.735296 	 6.448055 	 -1.756783 
H 	 -3.846122 	 -2.637203 	 -7.333272 
H 	 -4.232841 	 -2.075956 	 -5.940914 
H 	 -5.806845 	 4.585374 	 -1.615832 
H 	 -4.550026 	 3.653336 	 -1.339167 
H 	 2.181688 	 -0.118757 	 4.843500 
H 	 2.146495 	 1.160089 	 4.007047 
H 	 -3.188239 	 6.437049 	 -1.347067 
H 	 -4.069728 	 -7.178326 	 -2.044329 
H 	 1.344139 	 4.352300 	 -2.182124 
H 	 1.398604 	 4.991325 	 -0.735677 
H 	 5.665674 	 6.122137 	 0.467912 
H 	 6.993519 	 7.140360 	 0.718024 
H 	 0.238978 	 -0.075774 	 -6.267154 
H 	 -0.715563 	 1.081347 	 -5.903902 
H 	 5.360975 	 0.875168 	 -1.592044 
H 	 6.910068 	 0.785390 	 -1.369674 
H 	 2.466240 	 -1.963761 	 -2.922761 
H 	 1.285702 	 -3.097706 	 -3.075650 
H 	 -5.369508 	 -5.363702 	 -5.320915 
H 	 -6.213538 	 -6.531856 	 -5.815143 
H 	 -2.853655 	 -5.971218 	 5.613911 
H 	 -4.211010 	 -6.730432 	 6.137043 
H 	 -0.787320 	 -7.028517 	 -6.949275 
H 	 0.313057 	 -6.771872 	 6.889546 
H 	 -3.220792 	 2.027586 	 5.871376 
H 	 -3.063574 	 2.930891 	 7.176432 
H 	 0.608340 	 5.662901 	 -7.296241 
H 	 0.554866 	 4.165389 	 7.462845 
H 	 6.975228 	 -3.697446 	 5.427192 
H 	 5.620443 	 -3.083746 	 4.826430 
H 	 -6.522503 	 0.963910 	 2.413044 
H 	 -6.541128 	 0.702737 	 3.951223 
H 	 0.611025 	 -4.362023 	 0.718526 
H 	 0.488087 	 -3.842388 	 2.101382 
H 	 -0.052741 	 -0.210570 	 -1.942022 
H 	 -0.860639 	 0.811868 	 -2.800032 
H 	 -1.925391 	 3.265186 	 -3.736033 
H 	 -2.718284 	 2.354669 	 -2.880816 
H 	 0.447702 	 2.041226 	 6.743177 
H 	 -1.027712 	 2.372157 	 6.276897 
H 	 6.416276 	 3.564948 	 -5.873419 
H 	 6.796403 	 3.601928 	 -4.390857 
H 	 7.075797 	 -6.050137 	 6.718226 
H 	 6.419652 	 -5.275796 	 -6.960281 
H 	 3.305718 	 0.346292 	 -2.860931 
H 	 4.214616 	 -0.296011 	 -3.877857 
H 	 6.371481 	 -6.384446 	 -0.496174 
H 	 5.897889 	 -4.904468 	 -0.448448 
H 	 5.254808 	 -1.298368 	 -6.646949 
H 	 4.597216 	 -2.073842 	 7.127949 
H 	 7.004564 	 5.934839 	 -5.291988 
H 	 -7.136319 	 6.321210 	 -3.868206 
H 	 -6.255376 	 -4.074428 	 2.568647 
H 	 7.305052 	 -3.562517 	 2.980382 
H 	 3.600912 	 -4.162900 	 4.840825 
H 	 2.840962 	 -2.753712 	 4.590893 
H 	 -5.662047 	 -4.792440 	 6.650747 
H 	 -5.592102 	 -4.198413 	 5.239176 
H 	 -0.474414 	 -2.943453 	 -7.216375 
H 	 0.627619 	 -3.940304 	 7.502861 
H 	 0.183857 	 -6.948005 	 -0.712306 
H 	 -0.177179 	 -6.734284 	 -2.136679 
H 	 3.786835 	 6.662039 	 -3.476773 
H 	 3.132064 	 5.426524 	 -4.082867 
H 	 -1.115041 	 3.651122 	 -5.719723 
H 	 0.079515 	 3.031317 	 -4.832559 
H 	 3.555639 	 -5.915132 	 0.112164 
H 	 4.221899 	 -7.312910 	 0.385895 
H 	 -5.328394 	 4.196060 	 0.603184 
H 	 -4.984697 	 3.623357 	 2.105700 
H 	 6.248854 	 0.158876 	 -3.841726 
H 	 5.723399 	 0.704345 	 -5.240906 
H 	 -0.710121 	 6.176070 	 -2.466239 
H 	 -1.356856 	 6.479475 	 -3.761524 
H 	 1.635768 	 -2.197280 	 6.448761 
H 	 0.580743 	 -1.286874 	 5.651455 
H 	 -6.575788 	 2.406877 	 -4.831343 
H 	 -5.181579 	 1.540659 	 -4.881037 
H 	 -4.148481 	 3.871435 	 -3.976863 
H 	 -5.588696 	 4.175333 	 -4.361859 
H 	 -0.448537 	 -5.337701 	 5.235779 
H 	 -1.992200 	 -5.565346 	 3.744173 
H 	 -6.032059 	 6.590983 	 4.627713 
H 	 -5.312598 	 -7.154402 	 3.757556 
H 	 -3.461363 	 -0.687818 	 2.740376 
H 	 -4.996760 	 -0.657241 	 2.693354 
H 	 2.296816 	 3.095233 	 -4.599172 
H 	 1.753372 	 4.327466 	 -5.520533 
H 	 3.494425 	 -6.642392 	 5.722569 
H 	 4.640856 	 -5.944472 	 6.571957 
H 	 2.116121 	 5.291670 	 5.245060 
H 	 0.966117 	 4.170861 	 5.283926 
H 	 0.324251 	 -4.876255 	 -4.384568 
H 	 0.119052 	 -3.446491 	 -4.947382 
H 	 4.124247 	 2.634814 	 -1.969014 
H 	 2.991626 	 1.763317 	 -1.254832 
H 	 7.272379 	 -1.772245 	 -7.140499 
H 	 -6.244787 	 -2.574707 	 -6.895476 
H 	 2.229851 	 0.730733 	 -7.163431 
H 	 2.640988 	 1.738023 	 6.623239 
H 	 1.794718 	 -1.613886 	 -6.285959 
H 	 2.365863 	 -0.630589 	 -5.132858 
H 	 0.779620 	 -6.835569 	 -5.666478 
H 	 0.563047 	 -7.141935 	 -4.155628 
H 	 -1.600471 	 4.441181 	 2.105693 
H 	 -1.764636 	 3.072362 	 1.189636 
H 	 1.879776 	 6.898867 	 0.332687 
H 	 0.861207 	 6.252226 	 1.324164 
H 	 5.333549 	 2.077997 	 7.456878 
H 	 4.286504 	 2.012168 	 -6.255693 
H 	 -3.053613 	 5.151422 	 -6.102772 
H 	 -2.590139 	 5.131598 	 7.287776 
H 	 -3.465125 	 0.580398 	 -6.809762 
H 	 -3.523821 	 0.085324 	 -5.375416 
H 	 -2.516592 	 -6.932824 	 1.729878 
H 	 -1.040335 	 -7.309522 	 1.821159 
H 	 -0.847334 	 1.189725 	 2.471627 
H 	 -1.269121 	 -0.157125 	 1.681190 
H 	 -6.004425 	 -6.992399 	 1.709896 
H 	 -7.129434 	 -5.847519 	 1.680308 
H 	 -7.161388 	 1.717839 	 -6.724299 
H 	 -6.104945 	 0.658300 	 -7.066985 
H 	 -2.315036 	 -3.758784 	 5.849886 
H 	 -2.203836 	 -2.151294 	 5.921638 
H 	 -4.189435 	 1.800133 	 3.762993 
H 	 -3.448941 	 3.229198 	 3.809824 
H 	 5.412414 	 4.696625 	 -2.977066 
H 	 6.734316 	 4.292691 	 -2.417703 
H 	 -3.664768 	 -5.448767 	 -3.193064 
H 	 -5.169582 	 -5.336094 	 -2.717980 
H 	 1.872631 	 -1.889347 	 -0.854407 
H 	 1.448911 	 -1.292623 	 0.517044 
H 	 -3.411286 	 -4.140755 	 0.357307 
H 	 -4.572225 	 -3.948666 	 1.343925 
H 	 -3.453894 	 -1.702009 	 0.327155 
H 	 -4.779963 	 -1.810450 	 -0.201273 
H 	 3.158874 	 -6.379774 	 3.169918 
H 	 1.920664 	 -5.685852 	 2.536970 
H 	 3.027585 	 -4.001512 	 7.013189 
H 	 3.582741 	 -3.619953 	 -6.492914 
H 	 -7.291049 	 3.997215 	 2.319341 
H 	 6.865036 	 3.356762 	 3.615871 
H 	 -0.999779 	 -2.229123 	 1.957454 
H 	 -1.096043 	 -2.501287 	 0.527347 
H 	 -2.687228 	 7.015314 	 6.046687 
H 	 -1.293236 	 6.414062 	 6.075710 
H 	 6.368877 	 -6.700643 	 -4.628198 
H 	 5.229566 	 -6.127997 	 -3.601854 
H 	 -4.164383 	 7.249347 	 0.231181 
H 	 -4.556495 	 6.397802 	 1.428526 
H 	 -3.100966 	 -0.125338 	 -2.999655 
H 	 -3.557182 	 -0.059348 	 -1.532001 
H 	 -6.898957 	 -4.553075 	 -1.293721 
H 	 -5.421342 	 -4.121446 	 -0.964985 
H 	 5.966860 	 -7.157337 	 2.896368 
H 	 5.058577 	 6.540996 	 2.904709 
H 	 1.458168 	 2.744097 	 -0.417305 
H 	 1.115728 	 1.111327 	 -0.488839 
H 	 4.155214 	 6.180605 	 6.354929 
H 	 4.498987 	 6.645195 	 5.063641 
H 	 4.570312 	 3.553756 	 4.786719 
H 	 4.820534 	 2.032606 	 5.085644 
H 	 5.451216 	 7.149461 	 -7.005108 
H 	 4.463801 	 6.324221 	 -6.251918 
H 	 0.310056 	 -2.623221 	 4.215323 
H 	 -0.815974 	 -3.787265 	 4.241315 
H 	 2.745186 	 4.645953 	 3.497270 
H 	 3.975060 	 4.110618 	 2.647379 
H 	 3.520235 	 -3.504593 	 -1.048717 
H 	 4.230345 	 -3.266361 	 0.353674 
H 	 -3.273286 	 -2.198887 	 -3.688702 
H 	 -4.420977 	 -1.063937 	 -3.946558 
H 	 7.236008 	 5.007269 	 5.756186 
H 	 7.195323 	 5.420030 	 4.350774 
H 	 4.197267 	 -2.888116 	 2.524906 
H 	 4.636614 	 -1.578477 	 2.089205 
H 	 1.273833 	 2.185735 	 1.985935 
H 	 0.755453 	 2.996339 	 3.223073 
H 	 4.460692 	 3.951888 	 0.334267 
H 	 3.494353 	 4.749303 	 -0.615101 
H 	 1.074357 	 7.441545 	 3.038030 
H 	 0.726732 	 6.019187 	 3.604091 
H 	 -3.939594 	 5.919847 	 -4.526175 
H 	 -3.158127 	 7.291883 	 -5.030890 
H 	 -2.085826 	 4.521700 	 -1.779565 
H 	 -1.682310 	 4.777145 	 -0.250789 
H 	 -2.468786 	 -3.326782 	 -1.670807 
H 	 -1.730741 	 -3.640071 	 -2.905286 
H 	 -2.939980 	 1.281530 	 1.270438 
H 	 -3.407496 	 1.671773 	 -0.153665 
H 	 -1.616218 	 -5.088083 	 0.672303 
H 	 -1.275778 	 -4.907926 	 -0.806362 
H 	 -4.153304 	 5.456950 	 3.746544 
H 	 -2.940442 	 5.251531 	 4.566063 
H 	 1.109372 	 -5.000783 	 5.010395 
H 	 -2.895800 	 -6.043494 	 -6.783854 
H 	 -6.082845 	 1.546710 	 0.023198 
H 	 -6.560945 	 0.010635 	 0.135167 
H 	 4.705937 	 1.308478 	 1.709333 
H 	 3.498474 	 1.787643 	 0.712265 
H 	 2.760330 	 -6.455867 	 -2.281437 
H 	 2.518113 	 -6.471888 	 -3.845608 
H 	 -1.155857 	 0.207418 	 6.516141 
H 	 -1.170437 	 0.462522 	 5.097483 
H 	 -2.200405 	 -5.256770 	 -5.543328 
O 	 7.246686 	 -0.028612 	 5.110381 
O 	 4.181647 	 -3.731994 	 -4.917973 
O 	 -5.882854 	 -0.878295 	 -3.129701 
O 	 5.204708 	 -0.041585 	 3.102429 
O 	 -6.775282 	 -1.740349 	 0.082651 
O 	 6.210321 	 -2.418844 	 -1.944299 
O 	 -4.388240 	 -4.189345 	 3.557538 
O 	 -6.675575 	 6.173145 	 -1.979049 
O 	 -4.495155 	 -2.755992 	 -6.632212 
O 	 -5.455727 	 3.830822 	 -1.088500 
O 	 2.779044 	 0.614742 	 4.548494 
O 	 -4.015100 	 6.968408 	 -1.353770 
O 	 1.649051 	 4.205627 	 -1.272469 
O 	 6.288801 	 6.806788 	 0.079439 
O 	 -0.717423 	 0.201298 	 -6.291252 
O 	 6.149685 	 0.301079 	 -1.764910 
O 	 2.139111 	 -2.835331 	 -2.555403 
O 	 -6.125516 	 -5.570472 	 -5.872819 
O 	 -3.317353 	 -6.511344 	 6.447066 
O 	 0.103361 	 7.565508 	 -7.272718 
O 	 -2.874481 	 2.024762 	 6.825770 
O 	 1.131265 	 4.865221 	 -7.180294 
O 	 6.585624 	 -3.024708 	 4.827126 
O 	 -5.979910 	 1.083850 	 3.205593 
O 	 1.165715 	 -4.222816 	 1.531339 
O 	 0.018374 	 0.697336 	 -2.372926 
O 	 -2.644489 	 3.324256 	 -3.029801 
O 	 -0.085336 	 2.279367 	 5.936396 
O 	 7.204118 	 3.657939 	 -5.274442 
O 	 6.244446 	 -5.906460 	 7.241590 
O 	 3.294601 	 -0.417316 	 -3.448554 
O 	 6.650806 	 -5.482179 	 -0.714513 
O 	 5.187853 	 -1.301964 	 7.269206 
O 	 -7.398779 	 6.628878 	 -4.813324 
O 	 -7.124295 	 -3.785954 	 2.142478 
O 	 3.690074 	 -3.243129 	 4.357370 
O 	 -6.217679 	 -4.484184 	 5.933886 
O 	 0.435711 	 -3.114065 	 -6.899730 
O 	 0.030520 	 -6.171456 	 -1.387135 
O 	 4.004507 	 5.818202 	 -3.941858 
O 	 -0.853322 	 2.886661 	 -5.169729 
O 	 3.341223 	 -6.865337 	 0.117612 
O 	 -5.369278 	 4.391564 	 1.625814 
O 	 5.794866 	 -0.084849 	 -4.670998 
O 	 -0.455155 	 6.504800 	 -3.351132 
O 	 1.404309 	 -1.822172 	 5.524321 
O 	 -5.924086 	 1.876114 	 -4.279602 
O 	 -4.809178 	 4.604227 	 -4.016575 
O 	 -2.046180 	 -5.193633 	 4.646386 
O 	 -5.169317 	 7.086748 	 4.476056 
O 	 -4.234635 	 -1.271398 	 2.827355 
O 	 1.861023 	 3.926106 	 -4.614776 
O 	 3.936503 	 -5.751369 	 5.961185 
O 	 1.399163 	 4.821877 	 4.696057 
O 	 -0.059951 	 -3.995465 	 -4.182236 
O 	 3.819857 	 1.696924 	 -1.836176 
O 	 -7.124013 	 -2.372461 	 -6.498096 
O 	 2.099551 	 1.676432 	 7.447282 
O 	 2.086739 	 -0.676244 	 -6.099774 
O 	 1.030973 	 -6.502543 	 -4.747168 
O 	 -1.327675 	 3.947922 	 1.284586 
O 	 1.157679 	 6.238980 	 0.346024 
O 	 5.248870 	 2.062932 	 -6.475055 
O 	 -2.491160 	 4.607045 	 -6.762485 
O 	 -4.029258 	 0.597411 	 -5.999004 
O 	 -1.635122 	 -6.522551 	 1.708299 
O 	 -1.557737 	 0.761783 	 1.944794 
O 	 -6.992854 	 -6.801297 	 1.816981 
O 	 -6.843923 	 1.155127 	 7.445913 
O 	 -2.358400 	 -2.978959 	 6.446194 
O 	 -3.381659 	 2.237959 	 4.017295 
O 	 5.971166 	 3.915288 	 -2.923408 
O 	 -4.531687 	 -5.925968 	 -3.263017 
O 	 1.855980 	 -1.038174 	 -0.361558 
O 	 -4.411179 	 -4.071689 	 0.403663 
O 	 -3.915998 	 -1.476117 	 -0.507693 
O 	 2.221335 	 -6.188813 	 3.331751 
O 	 3.298999 	 -3.279332 	 -7.336574 
O 	 6.815616 	 4.069076 	 2.945732 
O 	 -0.959280 	 -1.759024 	 1.121197 
O 	 -2.195381 	 6.163755 	 5.813589 
O 	 5.832272 	 -5.922814 	 -4.371205 
O 	 -4.284985 	 7.312123 	 1.249380 
O 	 -3.167941 	 0.541423 	 -2.241715 
O 	 -6.051547 	 -4.378762 	 -1.765497 
O 	 5.078889 	 7.492057 	 3.129847 
O 	 1.654323 	 1.829342 	 -0.054684 
O 	 3.646769 	 6.455894 	 5.536452 
O 	 4.971022 	 2.923962 	 5.419208 
O 	 5.096918 	 6.221255 	 -7.014886 
O 	 -0.479775 	 -3.005693 	 3.718754 
O 	 3.734135 	 4.719870 	 3.350308 
O 	 4.190359 	 -3.864180 	 -0.440255 
O 	 -3.588667 	 -1.552659 	 -4.361405 
O 	 -7.399729 	 5.726481 	 5.192768 
O 	 4.613913 	 -2.516924 	 1.734975 
O 	 0.962526 	 2.119426 	 2.889558 
O 	 4.398662 	 4.760215 	 -0.220607 
O 	 0.462723 	 6.681221 	 2.918111 
O 	 -3.079974 	 6.399306 	 -4.654343 
O 	 -1.809082 	 5.209100 	 -1.158136 
O 	 -2.625397 	 -3.582778 	 -2.602824 
O 	 -3.772441 	 1.643145 	 0.753908 
O 	 -1.561048 	 -4.383894 	 -0.012673 
O 	 -3.379531 	 4.904827 	 3.782956 
O 	 0.466529 	 -5.276931 	 5.697291 
O 	 -6.866594 	 0.949872 	 0.110855 
O 	 4.369977 	 2.051925 	 1.149168 
O 	 3.218450 	 -6.450946 	 -3.107991 
O 	 -1.004227 	 -0.312757 	 5.698460 
O 	 -2.406150 	 -6.143935 	 -5.938897 
K 	 7.396652 	 -3.446968 	 -4.259257 
