333
conformation = 67
H 	 7.031140 	 -1.050056 	 5.075972 
H 	 7.334935 	 0.288302 	 6.021161 
H 	 3.545900 	 -3.915501 	 -4.042511 
H 	 4.566744 	 -4.619811 	 -4.844103 
H 	 -6.240922 	 -1.080274 	 -2.315877 
H 	 -6.117293 	 0.063161 	 -3.411540 
H 	 4.114432 	 -0.039299 	 3.497574 
H 	 5.600573 	 -0.227015 	 3.835990 
H 	 -7.027072 	 -2.364188 	 0.921851 
H 	 7.318982 	 -2.001577 	 -0.515223 
H 	 5.343989 	 -2.858266 	 -1.361579 
H 	 5.897320 	 -1.480533 	 -1.801323 
H 	 -3.605539 	 -4.538755 	 3.901393 
H 	 -4.561318 	 -3.310966 	 3.542522 
H 	 -7.327558 	 6.586844 	 -1.302604 
H 	 -5.870243 	 6.390024 	 -1.751542 
H 	 -3.853658 	 -2.991983 	 -7.218419 
H 	 -4.085260 	 -2.667607 	 -5.793727 
H 	 -6.046614 	 4.575336 	 -1.518240 
H 	 -4.750525 	 3.746698 	 -1.612965 
H 	 2.259338 	 -0.388301 	 4.811391 
H 	 2.039365 	 0.885251 	 3.955195 
H 	 -3.329250 	 6.378302 	 -1.563523 
H 	 -4.138055 	 -7.300291 	 -2.057094 
H 	 1.257785 	 4.223585 	 -2.196421 
H 	 1.124475 	 4.878124 	 -0.708701 
H 	 5.794282 	 6.004126 	 0.069721 
H 	 6.686506 	 7.050417 	 0.889294 
H 	 0.006774 	 -0.052194 	 -6.126719 
H 	 -0.957531 	 1.195329 	 -6.216942 
H 	 5.184264 	 0.673238 	 -1.343103 
H 	 6.735761 	 0.572258 	 -1.087011 
H 	 2.610304 	 -2.206647 	 -2.864573 
H 	 1.255005 	 -3.101578 	 -2.937858 
H 	 -5.342403 	 -5.247924 	 -5.437501 
H 	 -6.334514 	 -6.518186 	 -5.592751 
H 	 -2.875446 	 -6.000917 	 5.863779 
H 	 -4.364636 	 -6.570755 	 6.111149 
H 	 -0.707997 	 -6.932909 	 -6.878052 
H 	 0.482251 	 -6.692646 	 7.025757 
H 	 -3.328600 	 1.967952 	 6.001938 
H 	 -3.444637 	 2.605287 	 7.471875 
H 	 0.726332 	 5.770816 	 -7.048492 
H 	 0.281287 	 4.302739 	 7.411238 
H 	 7.001284 	 -3.780105 	 5.431377 
H 	 5.569449 	 -3.034157 	 4.932802 
H 	 -6.590904 	 1.452859 	 2.620273 
H 	 -6.729730 	 0.660203 	 3.957945 
H 	 0.435090 	 -4.767126 	 0.957684 
H 	 0.667370 	 -3.894442 	 2.262338 
H 	 -0.139113 	 -0.150232 	 -1.785753 
H 	 -1.101837 	 0.770268 	 -2.377677 
H 	 -2.014096 	 3.031813 	 -3.693373 
H 	 -2.955022 	 2.411056 	 -2.610973 
H 	 0.432679 	 1.777038 	 6.479531 
H 	 -1.013427 	 2.125385 	 6.560833 
H 	 6.281554 	 3.199297 	 -5.740154 
H 	 6.714713 	 3.610219 	 -4.301853 
H 	 6.958436 	 -6.054826 	 6.623981 
H 	 6.463531 	 -5.428326 	 -6.928576 
H 	 3.171514 	 0.330883 	 -2.847916 
H 	 4.139284 	 -0.472525 	 -3.855732 
H 	 6.181820 	 -6.369898 	 -0.320530 
H 	 5.825988 	 -4.851159 	 -0.490193 
H 	 5.114374 	 -1.289566 	 -6.626020 
H 	 4.281711 	 -2.090498 	 7.336940 
H 	 6.985838 	 5.772795 	 -5.206668 
H 	 -7.273308 	 6.321270 	 -3.964264 
H 	 -6.263286 	 -4.018859 	 2.597961 
H 	 7.284111 	 -3.349501 	 2.907705 
H 	 3.605108 	 -4.105143 	 4.917383 
H 	 2.975004 	 -2.733792 	 4.872641 
H 	 -5.718439 	 -4.630006 	 6.728114 
H 	 -5.700130 	 -4.656702 	 5.198399 
H 	 -0.539610 	 -2.705488 	 -7.091086 
H 	 0.430673 	 -3.881062 	 7.345557 
H 	 0.432204 	 -6.898466 	 -0.952295 
H 	 -0.348754 	 -6.501319 	 -2.233143 
H 	 3.388558 	 6.225940 	 -3.253618 
H 	 3.239571 	 4.904462 	 -3.966403 
H 	 -1.294716 	 3.323961 	 -5.768986 
H 	 -0.038395 	 3.269730 	 -4.777988 
H 	 3.398196 	 -6.013735 	 -0.034811 
H 	 4.183416 	 7.540934 	 0.181020 
H 	 -5.632179 	 3.781910 	 0.844650 
H 	 -4.798013 	 3.787337 	 2.214703 
H 	 6.105283 	 0.081923 	 -3.646878 
H 	 5.979186 	 0.780743 	 -4.981587 
H 	 -1.000555 	 6.019118 	 -2.549507 
H 	 -1.482201 	 6.410988 	 -3.989904 
H 	 1.438504 	 -2.421590 	 6.269073 
H 	 0.560462 	 -1.326878 	 5.890650 
H 	 -6.487311 	 2.108847 	 -4.927137 
H 	 -5.163802 	 1.502133 	 -4.424946 
H 	 -4.373355 	 3.855578 	 -3.650970 
H 	 -5.701032 	 4.366130 	 -4.487658 
H 	 -0.492701 	 -5.350817 	 5.290262 
H 	 -2.025198 	 -5.866015 	 3.966982 
H 	 -6.085768 	 7.117342 	 4.935227 
H 	 -5.276126 	 -7.173540 	 3.822010 
H 	 -3.476664 	 -0.832901 	 2.935115 
H 	 -4.982081 	 -0.509545 	 2.863883 
H 	 2.465788 	 3.193656 	 -4.463414 
H 	 1.802281 	 3.983859 	 -5.597580 
H 	 3.573384 	 -6.734467 	 5.855303 
H 	 4.653488 	 -5.612537 	 6.180911 
H 	 1.984798 	 5.164668 	 5.358237 
H 	 1.086414 	 3.963517 	 5.232291 
H 	 0.440779 	 -4.894886 	 -4.198142 
H 	 -0.140200 	 -3.746903 	 -5.007522 
H 	 3.907972 	 2.554308 	 -2.205768 
H 	 3.129545 	 1.726618 	 -1.133697 
H 	 7.038617 	 -2.016886 	 -7.203447 
H 	 -6.395476 	 -2.249203 	 -6.815910 
H 	 2.070484 	 0.829070 	 -6.842364 
H 	 2.413235 	 1.381048 	 6.688627 
H 	 2.368422 	 -1.524004 	 -6.399251 
H 	 2.352129 	 -0.615801 	 -5.168484 
H 	 0.879567 	 -6.850238 	 -5.591250 
H 	 0.509501 	 -7.185681 	 -4.128047 
H 	 -1.845252 	 4.505071 	 2.071625 
H 	 -2.051173 	 3.263402 	 1.247249 
H 	 1.958860 	 6.672791 	 0.331435 
H 	 0.753481 	 6.121234 	 1.291368 
H 	 5.085834 	 2.394127 	 -7.304694 
H 	 4.142455 	 2.092132 	 -6.201616 
H 	 -2.808974 	 5.229333 	 -5.983562 
H 	 -2.594088 	 5.201432 	 7.403499 
H 	 -3.644162 	 0.936174 	 -6.572039 
H 	 -3.598860 	 -0.322460 	 -5.558098 
H 	 -2.659634 	 -6.926861 	 1.761005 
H 	 -1.166733 	 -7.253098 	 2.265942 
H 	 -1.019127 	 1.132461 	 2.569328 
H 	 -1.161645 	 -0.153007 	 1.734850 
H 	 -6.277704 	 -6.897186 	 1.494575 
H 	 -7.222346 	 -5.772822 	 1.655762 
H 	 -7.365403 	 1.597903 	 -6.693591 
H 	 -6.019189 	 0.844420 	 -6.971916 
H 	 -2.050422 	 -3.733533 	 5.846833 
H 	 -2.177107 	 -2.180687 	 6.004305 
H 	 -4.365003 	 1.907869 	 3.753721 
H 	 -3.542942 	 3.113619 	 4.127927 
H 	 5.269510 	 4.669577 	 -3.202227 
H 	 6.352414 	 4.102644 	 -2.141231 
H 	 -3.707894 	 -5.470580 	 -3.125567 
H 	 -5.139426 	 -5.521995 	 -2.605309 
H 	 1.631032 	 -1.748077 	 -0.947872 
H 	 1.092559 	 -1.405708 	 0.373531 
H 	 -3.622044 	 -4.213764 	 0.153249 
H 	 -4.329743 	 -4.132728 	 1.452159 
H 	 -3.588149 	 -1.225317 	 0.374221 
H 	 -4.966880 	 -1.536007 	 -0.144169 
H 	 3.112713 	 -6.488611 	 3.154837 
H 	 1.941092 	 -5.580191 	 2.589594 
H 	 3.446224 	 -4.168190 	 7.164421 
H 	 3.256635 	 -3.514093 	 -6.314689 
H 	 -7.332452 	 4.042261 	 2.721227 
H 	 6.365122 	 3.275520 	 3.484828 
H 	 -0.920702 	 -2.451474 	 1.894423 
H 	 -1.423137 	 -2.289598 	 0.381702 
H 	 -2.705564 	 6.969625 	 6.105096 
H 	 -1.248277 	 6.360237 	 6.069066 
H 	 6.380040 	 -6.852247 	 -4.501863 
H 	 5.007969 	 -6.379989 	 -3.965839 
H 	 -4.283160 	 7.382076 	 0.311349 
H 	 -4.385615 	 6.248673 	 1.297425 
H 	 -3.145657 	 0.221618 	 -3.101347 
H 	 -3.815422 	 -0.261748 	 -1.865519 
H 	 -6.671736 	 -4.891615 	 -1.104769 
H 	 -5.561769 	 -3.944904 	 -1.101637 
H 	 5.838693 	 -7.232307 	 2.667196 
H 	 4.724327 	 6.592787 	 2.933040 
H 	 1.408273 	 2.711525 	 -0.402173 
H 	 1.099802 	 1.153075 	 -0.299437 
H 	 4.041998 	 6.138034 	 6.552534 
H 	 4.306880 	 6.370719 	 5.021714 
H 	 4.538565 	 3.834953 	 5.023521 
H 	 4.689439 	 2.313534 	 4.729033 
H 	 5.237176 	 7.081925 	 -6.942224 
H 	 4.442871 	 6.046313 	 -6.092550 
H 	 -0.035328 	 -2.849023 	 4.453712 
H 	 -1.077115 	 -3.888388 	 3.936439 
H 	 2.698704 	 4.815848 	 3.647713 
H 	 3.627016 	 3.906489 	 2.943687 
H 	 3.339123 	 -3.726532 	 -0.888525 
H 	 4.208234 	 -3.215011 	 0.410244 
H 	 -3.204431 	 -2.322407 	 -3.701147 
H 	 -4.485294 	 -1.517893 	 -4.061642 
H 	 7.076034 	 5.085817 	 6.019879 
H 	 7.204820 	 5.029586 	 4.462338 
H 	 4.127200 	 -3.090149 	 2.518075 
H 	 4.795255 	 -1.744276 	 2.310214 
H 	 0.719385 	 1.901415 	 1.867114 
H 	 0.837129 	 3.026634 	 2.977760 
H 	 4.446337 	 3.829194 	 0.276482 
H 	 3.492923 	 4.749964 	 -0.583115 
H 	 1.062548 	 7.254025 	 3.208170 
H 	 0.476698 	 5.859672 	 3.635207 
H 	 -3.968961 	 5.964545 	 -4.142434 
H 	 -3.472225 	 7.256574 	 -4.935916 
H 	 -2.139307 	 4.330833 	 -1.595350 
H 	 -1.666401 	 4.946882 	 -0.183698 
H 	 -2.732373 	 -3.058459 	 -1.708338 
H 	 -1.793370 	 -3.785913 	 -2.884812 
H 	 -3.110217 	 1.203819 	 1.297692 
H 	 -3.606501 	 1.646270 	 -0.044598 
H 	 -1.743895 	 -5.193469 	 0.823612 
H 	 -1.179787 	 -5.043339 	 -0.556255 
H 	 -4.207279 	 5.386408 	 3.975183 
H 	 -2.757986 	 5.124519 	 4.482659 
H 	 0.948520 	 -5.585081 	 4.871567 
H 	 -2.969334 	 -6.198248 	 -6.736721 
H 	 -6.064523 	 1.362322 	 0.125543 
H 	 -6.683775 	 -0.038318 	 0.254344 
H 	 4.554605 	 1.088809 	 1.610160 
H 	 3.368184 	 1.762035 	 1.006306 
H 	 2.399206 	 -6.279407 	 -2.398972 
H 	 2.555724 	 -6.407729 	 -3.865609 
H 	 -1.061102 	 -0.134936 	 6.696229 
H 	 -0.943818 	 0.476784 	 5.268464 
H 	 -2.681771 	 -5.189662 	 -5.628377 
O 	 7.145928 	 -0.076918 	 5.134896 
O 	 4.149340 	 -3.750134 	 -4.777259 
O 	 -5.953453 	 -0.875168 	 -3.239711 
O 	 5.015582 	 -0.098081 	 3.039571 
O 	 -6.892474 	 -1.766998 	 0.156599 
O 	 6.107308 	 -2.437585 	 -1.907694 
O 	 -4.557534 	 -4.287158 	 3.648560 
O 	 -6.787887 	 6.069145 	 -1.925483 
O 	 -4.624962 	 -2.817992 	 -6.610530 
O 	 -5.571042 	 3.828529 	 -1.088130 
O 	 2.656638 	 0.485021 	 4.618144 
O 	 -4.121146 	 6.927823 	 -1.357840 
O 	 1.622584 	 4.197083 	 -1.266846 
O 	 6.220192 	 6.870992 	 0.054098 
O 	 -0.893658 	 0.226691 	 -6.385420 
O 	 6.030957 	 0.334886 	 -1.744600 
O 	 2.064987 	 -2.923920 	 -2.478211 
O 	 -6.165904 	 -5.583862 	 -5.875615 
O 	 -3.449859 	 -6.550887 	 6.563948 
O 	 0.102048 	 7.522675 	 -7.194939 
O 	 -3.032111 	 1.933856 	 6.925904 
O 	 1.034423 	 4.817723 	 -7.013146 
O 	 6.542572 	 -3.045884 	 4.874229 
O 	 -6.062172 	 0.980779 	 3.306513 
O 	 1.137525 	 -4.294097 	 1.453054 
O 	 -0.133455 	 0.611083 	 -2.349844 
O 	 -2.707791 	 3.271481 	 -3.011332 
O 	 -0.249566 	 2.290885 	 5.983384 
O 	 7.052788 	 3.560681 	 -5.262379 
O 	 6.163662 	 -5.928890 	 7.178717 
O 	 3.261685 	 -0.480062 	 -3.462911 
O 	 6.502848 	 -5.493578 	 -0.651052 
O 	 4.984826 	 -1.392044 	 7.314492 
O 	 7.338960 	 6.604239 	 -4.822266 
O 	 -7.107765 	 -3.782248 	 2.191139 
O 	 3.603209 	 -3.282470 	 4.414377 
O 	 -6.309721 	 -4.531507 	 5.969181 
O 	 0.366939 	 -3.084959 	 -6.966178 
O 	 -0.112247 	 -6.229239 	 -1.323140 
O 	 3.855469 	 5.682636 	 -3.915555 
O 	 -0.829467 	 2.793719 	 -5.043105 
O 	 3.293197 	 -6.989433 	 0.161839 
O 	 -5.492329 	 4.223192 	 1.671218 
O 	 5.725925 	 -0.065603 	 -4.558072 
O 	 -0.699449 	 6.512178 	 -3.360267 
O 	 1.306308 	 -1.839270 	 5.498403 
O 	 -6.010544 	 1.821461 	 -4.147655 
O 	 -4.900341 	 4.603533 	 -3.958930 
O 	 -2.176286 	 -5.221596 	 4.699684 
O 	 -5.219047 	 7.056998 	 4.545046 
O 	 -4.352299 	 -1.252894 	 2.805884 
O 	 1.780207 	 3.879082 	 -4.606320 
O 	 3.687520 	 -5.785698 	 5.976530 
O 	 1.335150 	 4.776075 	 4.760404 
O 	 -0.113647 	 -4.065602 	 -4.064376 
O 	 3.767665 	 1.638809 	 -1.836266 
O 	 -7.298231 	 -2.326767 	 -6.447143 
O 	 1.967949 	 1.648406 	 7.507599 
O 	 1.947688 	 -0.723909 	 -6.043483 
O 	 0.987202 	 -6.521403 	 -4.681947 
O 	 -1.394765 	 3.965130 	 1.411853 
O 	 1.042854 	 6.265872 	 0.370138 
O 	 5.074101 	 1.969176 	 -6.397594 
O 	 -2.597609 	 4.628110 	 -6.702200 
O 	 -4.117927 	 0.482882 	 -5.836819 
O 	 -1.712550 	 -6.612248 	 1.788266 
O 	 -1.637220 	 0.664002 	 1.980578 
O 	 -7.109325 	 -6.706146 	 1.949585 
O 	 -6.896810 	 1.099714 	 7.557062 
O 	 -2.336537 	 -3.016068 	 6.449054 
O 	 -3.438230 	 2.146077 	 4.046668 
O 	 5.817901 	 3.877572 	 -2.880292 
O 	 -4.508425 	 -5.987011 	 -3.194535 
O 	 1.660229 	 -1.029428 	 -0.295321 
O 	 -4.515797 	 -4.098891 	 0.498683 
O 	 -4.014074 	 -1.553384 	 -0.453942 
O 	 2.124903 	 -6.253667 	 3.285125 
O 	 3.153870 	 -3.291191 	 7.575444 
O 	 6.644565 	 4.036180 	 3.011873 
O 	 -1.111384 	 -1.785700 	 1.167715 
O 	 -2.173131 	 6.124031 	 5.890911 
O 	 5.778754 	 -6.061627 	 -4.461631 
O 	 -4.480411 	 7.241019 	 1.259389 
O 	 -3.229523 	 0.456812 	 -2.188272 
O 	 -6.114306 	 -4.373909 	 -1.740412 
O 	 5.044564 	 7.480901 	 3.199134 
O 	 1.606624 	 1.884626 	 0.094944 
O 	 3.610013 	 6.410628 	 5.694972 
O 	 4.801235 	 2.972927 	 5.430478 
O 	 4.933352 	 6.158118 	 -6.960726 
O 	 -0.546408 	 -3.100097 	 3.696825 
O 	 3.632347 	 4.788933 	 3.391371 
O 	 4.142130 	 -3.912343 	 -0.358189 
O 	 -3.567011 	 -1.637136 	 -4.333632 
O 	 -7.532724 	 5.664949 	 5.270537 
O 	 4.455309 	 -2.512540 	 1.786368 
O 	 0.779340 	 2.079067 	 2.852236 
O 	 4.335920 	 4.732677 	 -0.115482 
O 	 0.373212 	 6.563405 	 2.944735 
O 	 -3.178265 	 6.328971 	 -4.627412 
O 	 -1.833078 	 5.167606 	 -1.115519 
O 	 -2.734063 	 -3.608325 	 -2.527788 
O 	 -3.873692 	 1.601771 	 0.911851 
O 	 -1.683910 	 -4.503732 	 0.088594 
O 	 -3.395333 	 4.802345 	 3.751656 
O 	 0.416479 	 -5.283307 	 5.645500 
O 	 -6.918014 	 0.920312 	 0.161437 
O 	 4.268148 	 1.964673 	 1.287105 
O 	 3.120554 	 -6.491221 	 -3.055212 
O 	 -1.078473 	 -0.373879 	 5.708949 
O 	 -2.568723 	 -6.143971 	 -5.814058 
K 	 7.279417 	 -3.506118 	 -4.189074 
