333
conformation = 7
H 	 6.803524 	 -1.061336 	 5.302573 
H 	 7.502460 	 0.281283 	 5.945693 
H 	 3.471124 	 -3.656033 	 -4.279030 
H 	 4.378383 	 -4.807633 	 -4.786012 
H 	 -5.678947 	 -0.827758 	 -2.008804 
H 	 -5.991033 	 -0.130648 	 -3.296511 
H 	 4.443324 	 -0.055632 	 3.742433 
H 	 5.989257 	 0.065965 	 3.926012 
H 	 -6.897815 	 -2.519142 	 0.797257 
H 	 7.517921 	 -2.117172 	 -0.654377 
H 	 5.524072 	 -2.875767 	 -1.282933 
H 	 6.028388 	 -1.571405 	 -1.886997 
H 	 -3.448964 	 -4.605551 	 3.656213 
H 	 -4.051903 	 -3.164861 	 3.393580 
H 	 -7.357783 	 6.353915 	 -1.300425 
H 	 -5.826944 	 6.501347 	 -1.775576 
H 	 -3.678979 	 -2.812381 	 -7.295460 
H 	 -4.118712 	 -2.146826 	 -6.029748 
H 	 -5.822990 	 4.239784 	 -1.618061 
H 	 -4.523323 	 3.359424 	 -1.350122 
H 	 2.426493 	 -0.060227 	 4.957667 
H 	 2.102467 	 1.087259 	 4.024393 
H 	 -3.361160 	 6.140375 	 -1.325503 
H 	 -3.909115 	 -7.386958 	 -2.066755 
H 	 1.405385 	 4.295841 	 -2.151200 
H 	 1.180412 	 4.869792 	 -0.640268 
H 	 5.703205 	 5.771138 	 0.117401 
H 	 6.713538 	 6.748762 	 1.037685 
H 	 0.324668 	 -0.096416 	 -5.873015 
H 	 -0.928884 	 0.881498 	 -5.753041 
H 	 5.287977 	 0.487432 	 -1.714496 
H 	 6.642342 	 0.483298 	 -0.970687 
H 	 2.429955 	 -2.002190 	 -3.048354 
H 	 1.418337 	 -3.283760 	 -3.073699 
H 	 -5.451417 	 -5.838625 	 -5.121344 
H 	 -6.790657 	 -6.494779 	 -5.697055 
H 	 -2.793064 	 -5.965794 	 5.632297 
H 	 -4.187990 	 -6.675605 	 5.781550 
H 	 -0.921029 	 -7.089774 	 -6.945762 
H 	 0.165648 	 -6.656176 	 6.915511 
H 	 -3.220171 	 2.187175 	 5.796135 
H 	 -2.894346 	 2.811850 	 7.234981 
H 	 0.460973 	 5.514379 	 -7.311818 
H 	 0.612671 	 3.952082 	 7.326463 
H 	 6.998672 	 -3.489321 	 5.511564 
H 	 5.515104 	 -3.081076 	 4.864951 
H 	 -6.435389 	 0.870363 	 2.204167 
H 	 -6.609349 	 0.577388 	 3.727951 
H 	 0.859157 	 -3.983053 	 0.820705 
H 	 0.328520 	 -3.886925 	 2.289007 
H 	 0.321058 	 -0.274682 	 -2.231403 
H 	 -0.840065 	 0.606230 	 -2.524237 
H 	 -2.059344 	 2.976904 	 -3.746974 
H 	 -2.889149 	 2.254464 	 -2.768929 
H 	 0.444546 	 1.764348 	 6.583221 
H 	 -0.944834 	 2.153713 	 6.154388 
H 	 6.696351 	 3.418111 	 -5.997063 
H 	 6.603180 	 3.827708 	 -4.491155 
H 	 6.839924 	 -5.875421 	 6.682887 
H 	 6.565450 	 -5.379337 	 -6.763656 
H 	 3.227275 	 0.382242 	 -2.999332 
H 	 4.073593 	 -0.758631 	 -3.752075 
H 	 6.490734 	 -6.528396 	 -0.889845 
H 	 5.767131 	 -5.115578 	 -0.851191 
H 	 5.066550 	 -1.063813 	 -6.731941 
H 	 4.771419 	 -1.994066 	 7.076261 
H 	 -7.299650 	 5.711092 	 -5.090789 
H 	 -6.977531 	 6.521562 	 -3.863681 
H 	 -6.574416 	 -3.992292 	 2.879916 
H 	 6.872732 	 -3.633970 	 2.738526 
H 	 3.514212 	 -4.273331 	 4.558617 
H 	 2.918032 	 -2.942198 	 4.726349 
H 	 -5.833781 	 -4.463981 	 6.882265 
H 	 -5.476087 	 -4.377544 	 5.368689 
H 	 -0.529865 	 -3.325636 	 -7.315860 
H 	 0.958785 	 -3.846367 	 -7.203431 
H 	 -0.307734 	 -6.627441 	 -0.615083 
H 	 -0.216171 	 -7.002319 	 -2.076439 
H 	 3.920780 	 6.884397 	 -3.806758 
H 	 3.169996 	 5.589434 	 -3.904208 
H 	 -1.491569 	 3.408134 	 -6.010198 
H 	 -0.213476 	 3.327895 	 -4.936359 
H 	 3.413318 	 -5.795701 	 0.198031 
H 	 4.087158 	 -7.169275 	 0.387888 
H 	 -5.553892 	 4.593890 	 0.668971 
H 	 -4.935894 	 3.655783 	 1.723202 
H 	 6.187803 	 0.115430 	 -3.976841 
H 	 5.668517 	 0.481877 	 -5.385419 
H 	 -0.374927 	 5.742498 	 -2.451668 
H 	 -1.245061 	 6.225622 	 -3.580181 
H 	 1.632606 	 -2.072343 	 6.500321 
H 	 0.523572 	 -1.315031 	 5.795100 
H 	 -6.739772 	 2.194231 	 -4.469810 
H 	 -5.435965 	 1.563807 	 -5.205100 
H 	 -4.235484 	 3.967227 	 -3.565958 
H 	 -5.459088 	 3.867870 	 -4.566654 
H 	 -0.504074 	 -5.347477 	 5.383625 
H 	 -1.798139 	 -5.838815 	 3.860990 
H 	 -5.768569 	 6.422379 	 4.954846 
H 	 -5.930144 	 7.502722 	 4.044209 
H 	 -3.432421 	 -0.821205 	 2.772801 
H 	 -4.891974 	 -0.934220 	 3.303238 
H 	 2.363088 	 3.133779 	 -5.054295 
H 	 1.659427 	 4.477338 	 -5.275573 
H 	 3.586467 	 -6.596364 	 5.884146 
H 	 4.884173 	 -5.845334 	 6.455706 
H 	 1.962965 	 5.198917 	 5.178580 
H 	 0.909910 	 4.204996 	 5.438205 
H 	 0.129949 	 -4.927351 	 -4.247370 
H 	 -0.157504 	 -3.764125 	 -5.218514 
H 	 4.301927 	 2.457129 	 -1.652317 
H 	 3.057400 	 1.676410 	 -1.096228 
H 	 7.329202 	 -2.062453 	 -7.181876 
H 	 -6.084693 	 -2.476275 	 -6.868942 
H 	 2.292123 	 0.653270 	 -7.277887 
H 	 2.522655 	 1.721497 	 6.512712 
H 	 1.804474 	 -1.733345 	 -6.032010 
H 	 2.411645 	 -0.585435 	 -5.176322 
H 	 0.971072 	 -6.790478 	 -5.740104 
H 	 0.460211 	 7.453594 	 -4.432658 
H 	 -2.041238 	 4.168621 	 1.786493 
H 	 -1.463667 	 2.820507 	 1.287659 
H 	 1.869924 	 6.860842 	 0.225751 
H 	 0.940783 	 6.096563 	 1.295605 
H 	 5.641488 	 1.703786 	 7.486842 
H 	 4.324848 	 2.134574 	 -6.825062 
H 	 -2.673187 	 4.997821 	 -6.071494 
H 	 -2.244652 	 4.996167 	 7.313489 
H 	 -3.580201 	 1.273675 	 -6.703468 
H 	 -3.389444 	 0.032790 	 -5.750803 
H 	 -2.474823 	 -7.108660 	 1.444354 
H 	 -1.057963 	 -7.102493 	 2.158025 
H 	 -0.668268 	 1.126762 	 2.215264 
H 	 -1.315183 	 0.265705 	 1.177245 
H 	 -6.020806 	 -7.129732 	 1.378280 
H 	 -7.212555 	 -6.181662 	 1.452068 
H 	 -7.228521 	 1.545166 	 -6.688839 
H 	 -6.273144 	 0.429858 	 -7.175075 
H 	 -2.692003 	 -3.694436 	 5.802101 
H 	 -2.127622 	 -2.217738 	 6.097368 
H 	 -4.320017 	 1.790326 	 3.723471 
H 	 -3.625992 	 3.160120 	 4.075885 
H 	 5.292952 	 4.489449 	 -2.969060 
H 	 6.672768 	 4.277680 	 -2.223964 
H 	 -3.990195 	 -5.242008 	 -3.377244 
H 	 -5.304023 	 -5.604748 	 -2.604793 
H 	 1.888881 	 -1.961254 	 -0.964274 
H 	 1.657657 	 -1.567233 	 0.478794 
H 	 -3.499283 	 -4.510006 	 0.271013 
H 	 -4.517435 	 -4.272504 	 1.398528 
H 	 -3.326175 	 -1.862820 	 0.199560 
H 	 -4.595105 	 -2.211800 	 -0.429924 
H 	 3.094413 	 -6.586709 	 3.334548 
H 	 2.147877 	 -5.493969 	 2.740610 
H 	 3.719194 	 -4.265446 	 7.089573 
H 	 3.483187 	 -3.490734 	 -6.441051 
H 	 -7.210850 	 4.293937 	 2.354246 
H 	 7.114621 	 3.113920 	 3.342266 
H 	 -0.853087 	 -2.050175 	 2.159201 
H 	 -1.020049 	 -2.822360 	 0.749597 
H 	 -2.616479 	 6.920571 	 6.143892 
H 	 -1.364949 	 6.232549 	 5.526674 
H 	 6.277599 	 -6.695193 	 -4.428283 
H 	 5.271534 	 -6.041449 	 -3.402829 
H 	 -4.204455 	 7.116815 	 0.344173 
H 	 -4.228252 	 6.299866 	 1.644318 
H 	 -3.454617 	 -0.172477 	 -2.836517 
H 	 -2.923707 	 -0.034562 	 -1.507280 
H 	 -6.945013 	 -4.993389 	 -1.522021 
H 	 -5.634841 	 -4.566314 	 -0.940361 
H 	 5.874788 	 -7.366930 	 3.538337 
H 	 5.023751 	 6.380452 	 2.849084 
H 	 1.289410 	 2.508421 	 -0.598518 
H 	 1.155477 	 0.870633 	 -0.538870 
H 	 4.237412 	 6.261865 	 6.100711 
H 	 4.059321 	 6.429676 	 4.637942 
H 	 4.674538 	 3.235535 	 4.775122 
H 	 4.649025 	 1.771865 	 5.380359 
H 	 5.866028 	 6.888582 	 -6.999681 
H 	 5.022084 	 6.162738 	 -6.031039 
H 	 0.156047 	 -3.042072 	 4.440894 
H 	 -1.182389 	 -3.674872 	 4.008965 
H 	 2.934195 	 4.180664 	 3.360939 
H 	 4.055177 	 4.048967 	 2.332931 
H 	 3.338196 	 -3.727939 	 -1.109195 
H 	 4.096056 	 -3.455190 	 0.259213 
H 	 -3.273356 	 -2.341011 	 -4.042588 
H 	 -4.677224 	 -1.597284 	 -3.831440 
H 	 -7.334729 	 4.964371 	 5.816014 
H 	 7.184521 	 5.043477 	 4.331680 
H 	 4.332405 	 -2.696155 	 2.702303 
H 	 5.008665 	 -1.764265 	 1.837901 
H 	 1.515002 	 2.305890 	 2.134770 
H 	 0.721214 	 2.755945 	 3.557697 
H 	 4.555667 	 3.692589 	 0.046100 
H 	 3.438171 	 4.602565 	 -0.607216 
H 	 1.097418 	 7.370046 	 3.223579 
H 	 0.478381 	 5.973025 	 3.543986 
H 	 -3.822872 	 6.042167 	 -4.233488 
H 	 -3.072960 	 7.302191 	 -4.955586 
H 	 -2.157389 	 4.357272 	 -1.785669 
H 	 -1.671105 	 4.782863 	 -0.337473 
H 	 -2.639642 	 -3.508289 	 -1.782855 
H 	 -1.583060 	 -3.794662 	 -2.923233 
H 	 -3.141949 	 1.385070 	 1.189458 
H 	 -3.361556 	 1.499575 	 -0.272105 
H 	 -1.505630 	 -5.097637 	 0.600870 
H 	 -0.986636 	 -4.779902 	 -0.774643 
H 	 -4.153743 	 5.518321 	 3.463219 
H 	 -3.021792 	 5.449322 	 4.530221 
H 	 0.974651 	 -5.839173 	 5.275465 
H 	 -2.831554 	 -6.071795 	 -6.899238 
H 	 -6.025607 	 1.223711 	 -0.127044 
H 	 -6.787476 	 -0.082432 	 0.197241 
H 	 4.970236 	 1.812393 	 1.745131 
H 	 3.883985 	 1.279919 	 0.857294 
H 	 3.195144 	 -6.780519 	 -2.089087 
H 	 2.313374 	 -6.458531 	 -3.384331 
H 	 -1.093320 	 0.033810 	 6.610046 
H 	 -1.259324 	 0.233535 	 5.118816 
H 	 -1.906519 	 -5.453051 	 -5.725164 
O 	 7.256071 	 -0.189708 	 5.114308 
O 	 4.142156 	 -3.899058 	 -4.977725 
O 	 -6.008123 	 -1.013447 	 -2.877346 
O 	 5.309337 	 -0.055197 	 3.223027 
O 	 -6.680966 	 -1.937749 	 0.040201 
O 	 6.225225 	 -2.541340 	 -1.933245 
O 	 -4.318863 	 -4.103089 	 3.519508 
O 	 -6.710135 	 6.152252 	 -2.001112 
O 	 -4.457971 	 -2.831707 	 -6.647642 
O 	 -5.382470 	 3.628732 	 -0.990069 
O 	 2.857749 	 0.713988 	 4.549477 
O 	 -4.017105 	 6.919129 	 -1.303549 
O 	 1.560193 	 4.123178 	 -1.221276 
O 	 6.284566 	 6.535146 	 0.178799 
O 	 -0.608001 	 -0.000364 	 -6.119112 
O 	 6.214834 	 0.137052 	 -1.808196 
O 	 2.129941 	 -2.876165 	 -2.614504 
O 	 -6.169798 	 -5.739993 	 -5.809799 
O 	 -3.338907 	 -6.540712 	 6.288754 
O 	 -0.095436 	 7.463862 	 -7.341942 
O 	 -2.732220 	 2.050094 	 6.645643 
O 	 1.148422 	 4.768005 	 -7.333931 
O 	 6.518414 	 -3.101132 	 4.762018 
O 	 -6.021803 	 1.059099 	 3.098762 
O 	 1.066399 	 -4.287588 	 1.708924 
O 	 0.112103 	 0.659591 	 -2.368979 
O 	 -2.643996 	 3.167206 	 -2.999938 
O 	 -0.013144 	 2.343733 	 5.941883 
O 	 7.249518 	 3.726595 	 -5.272377 
O 	 6.328907 	 -6.054222 	 7.468724 
O 	 3.172406 	 -0.526658 	 -3.474343 
O 	 6.634101 	 -5.568483 	 -0.744122 
O 	 5.413698 	 -1.269825 	 7.285960 
O 	 -7.337085 	 6.618858 	 -4.733178 
O 	 -7.248040 	 -3.970107 	 2.213978 
O 	 3.678357 	 -3.377833 	 4.330550 
O 	 -6.228719 	 -4.626690 	 5.963062 
O 	 0.275951 	 -3.316112 	 -6.747796 
O 	 0.112555 	 -6.320148 	 -1.404106 
O 	 4.115116 	 5.910464 	 -3.936143 
O 	 -1.021157 	 2.901564 	 -5.243491 
O 	 3.285319 	 -6.778951 	 0.092489 
O 	 -5.370324 	 4.496107 	 1.599252 
O 	 5.741147 	 -0.291215 	 -4.762946 
O 	 -0.315647 	 6.356388 	 -3.229052 
O 	 1.376769 	 -1.850584 	 5.621678 
O 	 -5.906145 	 1.730656 	 -4.395940 
O 	 -4.902669 	 4.477439 	 -4.054267 
O 	 -1.983762 	 -5.265114 	 4.626490 
O 	 -5.209984 	 6.994704 	 4.418743 
O 	 -4.168399 	 -1.449176 	 2.894441 
O 	 1.792761 	 3.822714 	 -4.547404 
O 	 3.993398 	 -5.738890 	 5.973134 
O 	 1.299096 	 4.728471 	 4.694318 
O 	 -0.145104 	 -3.988473 	 -4.248846 
O 	 3.710321 	 1.734096 	 -1.799276 
O 	 -7.057647 	 -2.576673 	 -6.598028 
O 	 2.271132 	 1.610400 	 7.449766 
O 	 2.076491 	 -0.815166 	 -6.050790 
O 	 0.916827 	 -6.649882 	 -4.766771 
O 	 -1.374030 	 3.776361 	 1.217314 
O 	 1.174266 	 6.148193 	 0.364302 
O 	 5.274077 	 2.043824 	 -6.575781 
O 	 -2.489851 	 4.411564 	 -6.811705 
O 	 -4.076064 	 0.619787 	 -6.199803 
O 	 -1.703184 	 -6.540971 	 1.688572 
O 	 -1.542755 	 0.719011 	 2.001962 
O 	 -6.919689 	 -7.077942 	 1.769831 
O 	 -6.890568 	 1.111448 	 7.380661 
O 	 -2.486155 	 -3.028924 	 6.485678 
O 	 -3.444189 	 2.168378 	 4.074425 
O 	 6.054365 	 3.833459 	 -2.873005 
O 	 -4.638532 	 -5.964813 	 -3.324905 
O 	 1.969579 	 -1.189805 	 -0.363949 
O 	 -4.401314 	 -4.211238 	 0.400619 
O 	 -3.892344 	 -1.509796 	 -0.512272 
O 	 2.211592 	 -6.181295 	 3.443309 
O 	 3.267995 	 -3.440589 	 7.473893 
O 	 6.953485 	 3.985939 	 2.882766 
O 	 -0.890469 	 -1.909184 	 1.157287 
O 	 -2.263854 	 6.022794 	 5.865539 
O 	 5.808424 	 -5.867353 	 -4.168984 
O 	 -4.192770 	 7.261991 	 1.375175 
O 	 -3.147626 	 0.535160 	 -2.264154 
O 	 -6.123176 	 -4.471933 	 -1.754335 
O 	 4.989499 	 7.334971 	 3.067523 
O 	 1.569199 	 1.638507 	 -0.166715 
O 	 3.511826 	 6.354451 	 5.440122 
O 	 5.094830 	 2.652801 	 5.451277 
O 	 5.180879 	 6.193410 	 -6.982397 
O 	 -0.497712 	 -3.009059 	 3.729805 
O 	 3.867139 	 4.385781 	 3.244130 
O 	 4.082287 	 -3.991451 	 -0.526014 
O 	 -3.779684 	 -1.512557 	 -4.186562 
O 	 7.447641 	 5.666983 	 5.122839 
O 	 4.679243 	 -2.667051 	 1.763485 
O 	 1.090956 	 2.008308 	 2.994884 
O 	 4.347164 	 4.604969 	 -0.255232 
O 	 0.416044 	 6.720903 	 2.914061 
O 	 -2.995316 	 6.359459 	 -4.646328 
O 	 -1.926189 	 5.153439 	 -1.207606 
O 	 -2.577871 	 -3.690049 	 -2.734995 
O 	 -3.804271 	 1.640812 	 0.555239 
O 	 -1.513455 	 -4.372391 	 -0.060310 
O 	 -3.472604 	 4.892860 	 3.819051 
O 	 0.384806 	 -5.399585 	 5.920770 
O 	 -6.908414 	 0.914905 	 0.147365 
O 	 4.341172 	 2.091792 	 1.055009 
O 	 3.261315 	 -6.532946 	 -3.077508 
O 	 -1.098967 	 -0.492077 	 5.755188 
O 	 -2.266171 	 -6.263390 	 -6.073047 
K 	 7.433375 	 -3.486443 	 -4.240976 
