333
conformation = 70
H 	 7.089482 	 -1.057884 	 5.072737 
H 	 -7.481945 	 0.253747 	 5.964599 
H 	 3.590471 	 -3.852315 	 -4.074575 
H 	 4.610735 	 -4.659744 	 -4.890111 
H 	 -6.227668 	 -1.051748 	 -2.383076 
H 	 -6.092037 	 0.067994 	 -3.471556 
H 	 4.137802 	 -0.072113 	 3.404367 
H 	 5.629061 	 -0.194816 	 3.802123 
H 	 -6.983310 	 -2.395768 	 0.870030 
H 	 7.324465 	 -1.968487 	 -0.552660 
H 	 5.417695 	 -2.823758 	 -1.389692 
H 	 5.908201 	 -1.485771 	 -1.834854 
H 	 -3.540832 	 -4.535517 	 3.850196 
H 	 -4.518988 	 -3.302491 	 3.516895 
H 	 -7.320926 	 6.599178 	 -1.385188 
H 	 -5.810396 	 6.423030 	 -1.851184 
H 	 -3.851557 	 -3.012963 	 -7.274904 
H 	 -4.022228 	 -2.696626 	 -5.812227 
H 	 -6.069918 	 4.543172 	 -1.523694 
H 	 -4.743954 	 3.756478 	 -1.683491 
H 	 2.303621 	 -0.425819 	 4.762394 
H 	 2.043670 	 0.841636 	 3.909470 
H 	 -3.296282 	 6.349800 	 -1.587925 
H 	 -4.123785 	 -7.308085 	 -2.130478 
H 	 1.294054 	 4.221543 	 -2.233747 
H 	 1.169223 	 4.888587 	 -0.747230 
H 	 5.850510 	 5.989176 	 -0.071057 
H 	 6.706335 	 7.053456 	 0.862650 
H 	 0.048706 	 -0.048203 	 -6.146303 
H 	 -0.914341 	 1.182782 	 -6.270938 
H 	 5.205159 	 0.678654 	 -1.419067 
H 	 6.771041 	 0.545698 	 -1.098527 
H 	 2.663328 	 -2.186936 	 -2.909923 
H 	 1.280673 	 -3.119088 	 -3.021274 
H 	 -5.304845 	 -5.247999 	 -5.516247 
H 	 -6.309022 	 -6.483634 	 -5.607434 
H 	 -2.852839 	 -6.037442 	 5.824251 
H 	 -4.308456 	 -6.581496 	 6.069877 
H 	 -0.668116 	 -6.931446 	 -6.913382 
H 	 0.538807 	 -6.690356 	 6.994337 
H 	 -3.294705 	 1.966072 	 5.959941 
H 	 -3.401396 	 2.620910 	 7.413092 
H 	 0.785419 	 5.752466 	 -7.055134 
H 	 0.348094 	 4.358726 	 7.379263 
H 	 7.075216 	 -3.754629 	 5.402880 
H 	 5.629132 	 -3.020613 	 4.890110 
H 	 -6.521942 	 1.478030 	 2.613621 
H 	 -6.716072 	 0.634854 	 3.920638 
H 	 0.437666 	 -4.785565 	 0.955633 
H 	 0.738921 	 -3.906273 	 2.203941 
H 	 -0.059111 	 -0.175810 	 -1.791511 
H 	 -1.072050 	 0.765790 	 -2.357931 
H 	 -2.016797 	 2.962714 	 -3.729919 
H 	 -2.884270 	 2.422524 	 -2.672385 
H 	 0.453444 	 1.768431 	 6.398835 
H 	 -0.968619 	 2.132631 	 6.541046 
H 	 6.313668 	 3.139980 	 -5.781398 
H 	 6.765841 	 3.614839 	 -4.331921 
H 	 6.998724 	 -6.039680 	 6.522311 
H 	 6.502594 	 -5.459324 	 -6.984273 
H 	 3.249170 	 0.323395 	 -2.916881 
H 	 4.204797 	 -0.449748 	 -3.911205 
H 	 6.211740 	 -6.346360 	 -0.386029 
H 	 5.853806 	 -4.857355 	 -0.565264 
H 	 5.144059 	 -1.239544 	 -6.664795 
H 	 4.316380 	 -2.091725 	 7.314594 
H 	 7.047498 	 5.764240 	 -5.278522 
H 	 -7.198025 	 6.360575 	 -3.964275 
H 	 -6.189147 	 -3.999658 	 2.598403 
H 	 7.358041 	 -3.375560 	 2.853052 
H 	 3.600946 	 -4.182889 	 4.878142 
H 	 3.017910 	 -2.705607 	 4.869580 
H 	 -5.697618 	 -4.560929 	 6.677818 
H 	 -5.649216 	 -4.700095 	 5.185014 
H 	 -0.483772 	 -2.690195 	 -7.167004 
H 	 0.446713 	 -3.861453 	 7.267700 
H 	 0.487627 	 -6.951863 	 -1.010595 
H 	 -0.316548 	 -6.513041 	 -2.238353 
H 	 3.414032 	 6.209391 	 -3.317091 
H 	 3.294390 	 4.903547 	 -4.011172 
H 	 -1.280821 	 3.291371 	 -5.796133 
H 	 0.035903 	 3.290133 	 -4.846521 
H 	 3.439087 	 -6.023464 	 -0.089261 
H 	 4.289760 	 7.522182 	 0.096386 
H 	 -5.591168 	 3.773131 	 0.773929 
H 	 -4.707629 	 3.813267 	 2.153296 
H 	 6.132967 	 0.079920 	 -3.675209 
H 	 6.039611 	 0.772027 	 -5.026281 
H 	 -0.971816 	 6.034567 	 -2.637065 
H 	 -1.479004 	 6.409546 	 -4.038508 
H 	 1.484123 	 -2.444629 	 6.251503 
H 	 0.604343 	 -1.288485 	 5.823711 
H 	 -6.460033 	 2.104299 	 -4.951902 
H 	 -5.108443 	 1.502387 	 -4.451865 
H 	 -4.356283 	 3.863473 	 -3.703439 
H 	 -5.625265 	 4.360767 	 -4.527597 
H 	 -0.468003 	 -5.336095 	 5.236830 
H 	 -1.964582 	 -5.913909 	 3.975737 
H 	 -6.021086 	 7.126803 	 4.908299 
H 	 -5.219505 	 -7.182947 	 3.757360 
H 	 -3.429431 	 -0.862827 	 2.923395 
H 	 -4.922167 	 -0.494491 	 2.870032 
H 	 2.464150 	 3.203591 	 -4.492563 
H 	 1.779505 	 3.982332 	 -5.659034 
H 	 3.614006 	 -6.786479 	 5.809210 
H 	 4.647228 	 -5.604981 	 6.055900 
H 	 1.999880 	 5.161358 	 5.337251 
H 	 1.144790 	 3.970209 	 5.161322 
H 	 0.449094 	 -4.893118 	 -4.215943 
H 	 -0.116267 	 -3.788574 	 -4.989859 
H 	 3.974493 	 2.559340 	 -2.250394 
H 	 3.200672 	 1.763697 	 -1.175233 
H 	 7.048512 	 -2.042281 	 -7.298435 
H 	 -6.356707 	 -2.197906 	 -6.850999 
H 	 2.070142 	 0.837034 	 -6.893904 
H 	 2.455587 	 1.337346 	 6.655862 
H 	 2.483077 	 -1.477994 	 -6.494163 
H 	 2.404456 	 -0.609695 	 -5.220854 
H 	 0.950384 	 -6.843415 	 -5.673770 
H 	 0.565187 	 -7.191604 	 -4.224647 
H 	 -1.780723 	 4.576502 	 2.034485 
H 	 -1.983553 	 3.246882 	 1.169357 
H 	 2.023115 	 6.648773 	 0.302182 
H 	 0.798018 	 6.144007 	 1.228731 
H 	 5.155888 	 2.384254 	 -7.348305 
H 	 4.156843 	 2.056773 	 -6.213760 
H 	 -2.714464 	 5.292226 	 -6.011192 
H 	 -2.499789 	 5.227660 	 7.358122 
H 	 -3.605057 	 0.974714 	 -6.584486 
H 	 -3.575770 	 -0.317796 	 -5.693286 
H 	 -2.579343 	 -6.959770 	 1.713502 
H 	 -1.124876 	 -7.236881 	 2.271859 
H 	 -0.992394 	 1.134621 	 2.540775 
H 	 -1.089350 	 -0.162814 	 1.667479 
H 	 -6.232873 	 -6.914170 	 1.440938 
H 	 -7.207016 	 -5.776148 	 1.620431 
H 	 -7.350817 	 1.583454 	 -6.733611 
H 	 -5.981108 	 0.869460 	 -6.998421 
H 	 -2.017357 	 -3.729613 	 5.811244 
H 	 -2.122668 	 -2.150404 	 5.985184 
H 	 -4.289776 	 1.882263 	 3.719410 
H 	 -3.465032 	 3.140142 	 4.091704 
H 	 5.333442 	 4.680053 	 -3.223859 
H 	 6.335791 	 4.124556 	 -2.131695 
H 	 -3.656230 	 -5.421971 	 -3.168241 
H 	 -5.098685 	 -5.514277 	 -2.664447 
H 	 1.675825 	 -1.707728 	 -1.005082 
H 	 1.086192 	 -1.441478 	 0.317946 
H 	 -3.578201 	 -4.220192 	 0.078130 
H 	 -4.243256 	 -4.157419 	 1.386975 
H 	 -3.584428 	 -1.153695 	 0.319592 
H 	 -4.908040 	 -1.562743 	 -0.178712 
H 	 3.146559 	 -6.498820 	 3.117553 
H 	 2.014171 	 -5.567537 	 2.554798 
H 	 3.524917 	 -4.141954 	 7.165686 
H 	 3.297719 	 -3.467928 	 -6.378385 
H 	 -7.279029 	 4.046139 	 2.683062 
H 	 6.359054 	 3.272350 	 3.407786 
H 	 -0.879081 	 -2.440315 	 1.790844 
H 	 -1.380822 	 -2.295253 	 0.376949 
H 	 -2.618986 	 6.965453 	 6.048189 
H 	 -1.189467 	 6.373952 	 6.016084 
H 	 6.432004 	 -6.840915 	 -4.578724 
H 	 5.022356 	 -6.395111 	 -4.028345 
H 	 -4.249549 	 7.374935 	 0.218813 
H 	 -4.340874 	 6.263984 	 1.242886 
H 	 -3.128737 	 0.234848 	 -3.175623 
H 	 -3.737270 	 -0.293838 	 -1.924699 
H 	 -6.579996 	 -4.926724 	 -1.171406 
H 	 -5.527986 	 -3.899645 	 -1.083735 
H 	 5.851196 	 -7.263693 	 2.638382 
H 	 4.754409 	 6.618593 	 2.860992 
H 	 1.478817 	 2.761649 	 -0.454036 
H 	 1.180915 	 1.113026 	 -0.327383 
H 	 4.173142 	 6.169343 	 6.497857 
H 	 4.369348 	 6.294100 	 4.998108 
H 	 4.584365 	 3.847106 	 5.035324 
H 	 4.715847 	 2.349929 	 4.676042 
H 	 5.265083 	 7.094188 	 -6.963269 
H 	 4.529167 	 6.059104 	 -6.088722 
H 	 0.004259 	 -2.880534 	 4.439159 
H 	 -1.088984 	 -3.873754 	 3.859590 
H 	 2.744046 	 4.844560 	 3.638463 
H 	 3.679531 	 3.941133 	 2.899308 
H 	 3.370293 	 -3.757818 	 -0.910152 
H 	 4.250259 	 -3.243786 	 0.349207 
H 	 -3.109495 	 -2.322253 	 -3.804306 
H 	 -4.402031 	 -1.572966 	 -4.129387 
H 	 7.123044 	 5.132024 	 5.980758 
H 	 7.246832 	 5.023347 	 4.486704 
H 	 4.183738 	 -3.037497 	 2.477181 
H 	 4.861443 	 -1.747281 	 2.297166 
H 	 0.755811 	 1.890864 	 1.842561 
H 	 0.879592 	 3.013112 	 2.898668 
H 	 4.515427 	 3.819627 	 0.219194 
H 	 3.534286 	 4.746873 	 -0.635247 
H 	 1.101446 	 7.227527 	 3.144983 
H 	 0.468507 	 5.846107 	 3.589083 
H 	 -3.875645 	 5.949283 	 -4.183704 
H 	 -3.427728 	 7.261553 	 -4.954850 
H 	 -2.073044 	 4.331739 	 -1.620933 
H 	 -1.569238 	 4.970405 	 -0.207197 
H 	 -2.671252 	 -3.041574 	 -1.762145 
H 	 -1.767813 	 -3.755112 	 -2.866175 
H 	 -3.029079 	 1.186988 	 1.270378 
H 	 -3.569380 	 1.617603 	 -0.073555 
H 	 -1.675938 	 -5.158641 	 0.785108 
H 	 -1.110606 	 -5.039349 	 -0.585983 
H 	 -4.116656 	 5.380209 	 3.925562 
H 	 -2.696393 	 5.141502 	 4.369764 
H 	 1.001575 	 -5.678767 	 4.844213 
H 	 -2.944724 	 -6.238194 	 -6.768823 
H 	 -5.979340 	 1.341336 	 0.071329 
H 	 -6.671796 	 -0.050155 	 0.262173 
H 	 4.657052 	 1.083711 	 1.569438 
H 	 3.354208 	 1.760035 	 0.993760 
H 	 2.484177 	 -6.251595 	 -2.458562 
H 	 2.582142 	 -6.422273 	 -3.957730 
H 	 -0.991769 	 -0.111912 	 6.667832 
H 	 -0.851891 	 0.520629 	 5.285106 
H 	 -2.677031 	 -5.163516 	 -5.670459 
O 	 7.187437 	 -0.078321 	 5.082629 
O 	 4.198122 	 -3.748933 	 -4.807346 
O 	 -5.907263 	 -0.871644 	 -3.307131 
O 	 5.042438 	 -0.101670 	 2.984079 
O 	 -6.849055 	 -1.765928 	 0.113293 
O 	 6.150740 	 -2.434413 	 -1.952369 
O 	 -4.525426 	 -4.291869 	 3.607159 
O 	 -6.745705 	 6.064665 	 -1.968728 
O 	 -4.579821 	 -2.826479 	 -6.661622 
O 	 -5.525747 	 3.829623 	 -1.139801 
O 	 2.701533 	 0.476723 	 4.575035 
O 	 -4.077224 	 6.929637 	 -1.413759 
O 	 1.674371 	 4.202831 	 -1.319540 
O 	 6.268142 	 6.880793 	 0.002973 
O 	 -0.862960 	 0.234039 	 -6.452330 
O 	 6.076695 	 0.342795 	 -1.791119 
O 	 2.116529 	 -2.931135 	 -2.516453 
O 	 -6.113141 	 -5.582232 	 -5.926297 
O 	 -3.410451 	 -6.543723 	 6.524998 
O 	 0.159763 	 7.526574 	 -7.237923 
O 	 -2.996027 	 1.926015 	 6.888952 
O 	 1.076837 	 4.816287 	 -7.045233 
O 	 6.593023 	 -3.040510 	 4.825424 
O 	 -6.015905 	 0.976713 	 3.264841 
O 	 1.192993 	 -4.298830 	 1.393629 
O 	 -0.097250 	 0.607875 	 -2.398427 
O 	 -2.660195 	 3.267792 	 -3.056119 
O 	 -0.212547 	 2.302642 	 5.939121 
O 	 7.090452 	 3.555931 	 -5.313942 
O 	 6.213960 	 -5.926676 	 7.123336 
O 	 3.307827 	 -0.488491 	 -3.519598 
O 	 6.540965 	 -5.485541 	 -0.693759 
O 	 5.017550 	 -1.396173 	 7.269973 
O 	 7.373708 	 6.605565 	 -4.875334 
O 	 -7.053446 	 -3.772136 	 2.145146 
O 	 3.654180 	 -3.281558 	 4.368610 
O 	 -6.263656 	 -4.537794 	 5.921290 
O 	 0.409882 	 -3.076948 	 -7.023521 
O 	 -0.072203 	 -6.226892 	 -1.371464 
O 	 3.892836 	 5.667035 	 -3.961920 
O 	 -0.773537 	 2.791116 	 -5.078335 
O 	 3.340156 	 -6.996677 	 0.115014 
O 	 -5.454375 	 4.205992 	 1.631742 
O 	 5.776624 	 -0.058446 	 -4.590861 
O 	 -0.673927 	 6.518297 	 -3.411517 
O 	 1.347306 	 -1.835167 	 5.443649 
O 	 -5.960045 	 1.816393 	 -4.179060 
O 	 -4.862598 	 4.611016 	 -4.001689 
O 	 -2.136000 	 -5.219176 	 4.654223 
O 	 -5.168880 	 7.063131 	 4.504448 
O 	 -4.309974 	 -1.244324 	 2.749466 
O 	 1.835585 	 3.873286 	 -4.655009 
O 	 3.714940 	 -5.772260 	 5.930559 
O 	 1.381868 	 4.772510 	 4.721904 
O 	 -0.062793 	 -4.066603 	 -4.104994 
O 	 3.811398 	 1.637403 	 -1.887722 
O 	 -7.265421 	 -2.314963 	 -6.493298 
O 	 2.012264 	 1.650494 	 7.465062 
O 	 1.986076 	 -0.724495 	 -6.081545 
O 	 1.037907 	 -6.520088 	 -4.720013 
O 	 -1.355362 	 3.972597 	 1.380848 
O 	 1.084138 	 6.275386 	 0.317628 
O 	 5.102451 	 1.970916 	 -6.446176 
O 	 -2.555217 	 4.629280 	 -6.744144 
O 	 -4.072775 	 0.473378 	 -5.865288 
O 	 -1.672131 	 -6.618010 	 1.751586 
O 	 -1.591367 	 0.657799 	 1.935711 
O 	 -7.067683 	 -6.686413 	 1.914968 
O 	 -6.843847 	 1.097650 	 7.519048 
O 	 -2.273012 	 -3.014813 	 6.396759 
O 	 -3.394712 	 2.136597 	 4.002644 
O 	 5.851979 	 3.875616 	 -2.929348 
O 	 -4.447396 	 -5.991801 	 -3.236494 
O 	 1.688397 	 -1.022109 	 -0.339394 
O 	 -4.472555 	 -4.100823 	 0.463535 
O 	 -3.971010 	 -1.553982 	 -0.499605 
O 	 2.168179 	 -6.255117 	 3.225395 
O 	 3.189416 	 -3.296703 	 7.524252 
O 	 6.681165 	 4.038504 	 2.970351 
O 	 -1.073252 	 -1.785791 	 1.123160 
O 	 -2.113332 	 6.121528 	 5.850371 
O 	 5.828240 	 -6.077325 	 -4.524426 
O 	 -4.448862 	 7.236798 	 1.215472 
O 	 -3.179081 	 0.456918 	 -2.234633 
O 	 -6.068143 	 -4.369177 	 -1.792533 
O 	 5.095532 	 7.484372 	 3.156062 
O 	 1.653152 	 1.896690 	 0.063946 
O 	 3.652336 	 6.410066 	 5.663190 
O 	 4.836233 	 2.986813 	 5.378104 
O 	 4.967752 	 6.151571 	 -7.003346 
O 	 -0.499369 	 -3.108830 	 3.636124 
O 	 3.679031 	 4.797050 	 3.339726 
O 	 4.190741 	 -3.911763 	 -0.400205 
O 	 -3.510584 	 -1.646065 	 -4.373633 
O 	 -7.496468 	 5.659383 	 5.228923 
O 	 4.490809 	 -2.510759 	 1.742422 
O 	 0.811793 	 2.078463 	 2.793055 
O 	 4.386218 	 4.733838 	 -0.151027 
O 	 0.418259 	 6.554971 	 2.898937 
O 	 -3.134371 	 6.329231 	 -4.674782 
O 	 -1.782116 	 5.167511 	 -1.166019 
O 	 -2.690835 	 -3.606132 	 -2.575732 
O 	 -3.835182 	 1.607384 	 0.877727 
O 	 -1.644521 	 -4.516442 	 0.053330 
O 	 -3.340794 	 4.798887 	 3.700420 
O 	 0.467989 	 -5.280399 	 5.589880 
O 	 -6.868590 	 0.925120 	 0.117208 
O 	 4.309694 	 1.961316 	 1.254772 
O 	 3.163099 	 -6.490100 	 -3.095209 
O 	 -1.032365 	 -0.387469 	 5.659479 
O 	 -2.532504 	 -6.136286 	 -5.853289 
K 	 7.320416 	 -3.508358 	 -4.229102 
