333
conformation = 3
H 	 6.827719 	 -0.998397 	 5.255466 
H 	 7.570485 	 0.350034 	 5.935400 
H 	 3.521066 	 -3.593256 	 -4.265609 
H 	 4.338941 	 -4.777663 	 -4.750120 
H 	 -5.623340 	 -0.792273 	 -1.983594 
H 	 -5.921289 	 -0.106670 	 -3.334483 
H 	 4.492103 	 0.019457 	 3.687164 
H 	 5.989587 	 0.108286 	 3.960877 
H 	 -6.849517 	 -2.482525 	 0.794338 
H 	 -7.287082 	 -2.070265 	 -0.671522 
H 	 5.585399 	 -2.815860 	 -1.311903 
H 	 6.080295 	 -1.519186 	 -1.931653 
H 	 -3.399615 	 -4.550517 	 3.639247 
H 	 -4.049885 	 -3.090765 	 3.362995 
H 	 -7.295844 	 6.468615 	 -1.295769 
H 	 -5.789879 	 6.487030 	 -1.765769 
H 	 -3.627747 	 -2.784822 	 -7.297050 
H 	 -4.056472 	 -2.162841 	 -6.034149 
H 	 -5.754626 	 4.274331 	 -1.641123 
H 	 -4.496127 	 3.397062 	 -1.354069 
H 	 2.502136 	 -0.019169 	 4.950014 
H 	 2.182805 	 1.133066 	 3.990320 
H 	 -3.319573 	 6.199443 	 -1.357009 
H 	 -3.826721 	 -7.334668 	 -2.056989 
H 	 1.473181 	 4.319898 	 -2.150157 
H 	 1.219714 	 4.950028 	 -0.639021 
H 	 5.730380 	 5.789685 	 0.105358 
H 	 6.755434 	 6.717618 	 1.033499 
H 	 0.363811 	 -0.042474 	 -5.844010 
H 	 -0.889855 	 0.908282 	 -5.790545 
H 	 5.354927 	 0.462837 	 -1.711826 
H 	 6.706177 	 0.522219 	 -1.004294 
H 	 2.501248 	 -1.983243 	 -3.006670 
H 	 1.433548 	 -3.240403 	 -3.069858 
H 	 -5.442331 	 -5.823041 	 -5.110179 
H 	 -6.740050 	 -6.443932 	 -5.704793 
H 	 -2.723353 	 -5.931481 	 5.655887 
H 	 -4.107918 	 -6.587473 	 5.782611 
H 	 -0.870583 	 -7.022637 	 -6.913757 
H 	 0.202472 	 -6.587063 	 6.903518 
H 	 -3.192978 	 2.196837 	 5.797433 
H 	 -2.869944 	 2.866850 	 7.223243 
H 	 0.519153 	 5.565286 	 -7.337482 
H 	 0.666747 	 4.050433 	 7.336340 
H 	 7.050004 	 -3.425272 	 5.450131 
H 	 5.576482 	 -3.044463 	 4.873431 
H 	 -6.373761 	 0.978432 	 2.200275 
H 	 -6.586556 	 0.624844 	 3.672630 
H 	 0.923181 	 -3.922373 	 0.824841 
H 	 0.422494 	 -3.855058 	 2.302635 
H 	 0.399096 	 -0.261766 	 -2.269160 
H 	 -0.802387 	 0.620150 	 -2.465654 
H 	 -2.001749 	 3.030771 	 -3.772460 
H 	 -2.877660 	 2.271109 	 -2.717229 
H 	 0.546562 	 1.820402 	 6.564327 
H 	 -0.894857 	 2.207131 	 6.162138 
H 	 6.706113 	 3.474652 	 -5.989945 
H 	 6.654514 	 3.861836 	 -4.480608 
H 	 6.922042 	 -5.803587 	 6.696062 
H 	 6.632004 	 -5.346176 	 -6.766302 
H 	 3.233568 	 0.384596 	 -3.028150 
H 	 4.106604 	 -0.738573 	 -3.753448 
H 	 6.529774 	 -6.485448 	 -0.856059 
H 	 5.782219 	 -5.038852 	 -0.882926 
H 	 5.131026 	 -0.988372 	 -6.723808 
H 	 4.828147 	 -1.930997 	 7.061503 
H 	 -7.175756 	 5.769354 	 -5.063646 
H 	 -6.901801 	 6.567476 	 -3.842470 
H 	 -6.517952 	 -3.933033 	 2.912111 
H 	 6.871426 	 -3.551284 	 2.701440 
H 	 3.580677 	 -4.229036 	 4.565993 
H 	 2.966092 	 -2.901861 	 4.781416 
H 	 -5.799302 	 -4.376048 	 6.873979 
H 	 -5.412897 	 -4.372400 	 5.362053 
H 	 -0.486536 	 -3.295813 	 -7.297502 
H 	 1.014260 	 -3.761226 	 -7.177405 
H 	 -0.251733 	 -6.617271 	 -0.553426 
H 	 -0.131932 	 -6.958596 	 -2.091723 
H 	 3.934782 	 6.947657 	 -3.766189 
H 	 3.258236 	 5.598058 	 -3.900702 
H 	 -1.443294 	 3.417139 	 -5.993574 
H 	 -0.180500 	 3.441578 	 -4.945524 
H 	 3.433631 	 -5.776795 	 0.165627 
H 	 4.173250 	 -7.113733 	 0.384966 
H 	 -5.546202 	 4.627947 	 0.677272 
H 	 -4.875648 	 3.728059 	 1.711831 
H 	 6.226148 	 0.120139 	 -3.990162 
H 	 5.707968 	 0.544124 	 -5.344749 
H 	 -0.310133 	 5.756094 	 -2.431484 
H 	 -1.165364 	 6.281082 	 -3.598755 
H 	 1.675192 	 -2.061045 	 6.518444 
H 	 0.603751 	 -1.278651 	 5.859649 
H 	 -6.706061 	 2.244408 	 -4.508755 
H 	 -5.337663 	 1.575517 	 -5.233899 
H 	 -4.189248 	 4.027039 	 -3.528696 
H 	 -5.389456 	 3.931205 	 -4.588439 
H 	 -0.477773 	 -5.293263 	 5.399675 
H 	 -1.755951 	 -5.816287 	 3.880404 
H 	 -5.733551 	 6.473774 	 5.039003 
H 	 -5.905773 	 -7.338472 	 4.047965 
H 	 -3.377054 	 -0.784870 	 2.778807 
H 	 -4.827812 	 -0.885062 	 3.349204 
H 	 2.401286 	 3.248366 	 -5.070070 
H 	 1.763133 	 4.521996 	 -5.300760 
H 	 3.670352 	 -6.551314 	 5.892182 
H 	 4.928374 	 -5.748743 	 6.435592 
H 	 2.031544 	 5.268474 	 5.205301 
H 	 0.977743 	 4.245982 	 5.462856 
H 	 0.206568 	 -4.882967 	 -4.219927 
H 	 -0.144820 	 -3.748654 	 -5.285319 
H 	 4.337392 	 2.518383 	 -1.665539 
H 	 3.075583 	 1.723962 	 -1.074432 
H 	 7.345951 	 -2.021027 	 -7.207723 
H 	 -6.066255 	 -2.385523 	 -6.889029 
H 	 2.374859 	 0.694428 	 -7.227349 
H 	 2.563654 	 1.751977 	 6.488323 
H 	 1.885409 	 -1.714221 	 -6.001786 
H 	 2.477698 	 -0.535785 	 -5.161415 
H 	 1.006947 	 -6.740991 	 -5.720340 
H 	 0.497470 	 7.464069 	 -4.412913 
H 	 -2.079278 	 4.154735 	 1.780054 
H 	 -1.455549 	 2.854116 	 1.300761 
H 	 1.876140 	 6.870422 	 0.200630 
H 	 0.980229 	 6.151776 	 1.314588 
H 	 5.662231 	 1.773556 	 7.472250 
H 	 4.382977 	 2.222638 	 -6.925670 
H 	 -2.629878 	 5.023881 	 -6.063403 
H 	 -2.227476 	 5.015985 	 7.311856 
H 	 -3.545619 	 1.344268 	 -6.709591 
H 	 -3.362614 	 0.094299 	 -5.802510 
H 	 -2.471065 	 -7.052601 	 1.459608 
H 	 -1.027754 	 -7.046686 	 2.223481 
H 	 -0.621294 	 1.164396 	 2.218532 
H 	 -1.261671 	 0.327632 	 1.187480 
H 	 -5.981664 	 -7.086021 	 1.370666 
H 	 -7.149225 	 -6.147315 	 1.449329 
H 	 -7.192467 	 1.577263 	 -6.678420 
H 	 -6.210951 	 0.498469 	 -7.180676 
H 	 -2.619641 	 -3.645184 	 5.765005 
H 	 -2.085220 	 -2.134766 	 6.091024 
H 	 -4.276534 	 1.886641 	 3.742162 
H 	 -3.593744 	 3.182098 	 4.076485 
H 	 5.333422 	 4.498858 	 -2.990569 
H 	 6.738340 	 4.311868 	 -2.198718 
H 	 -3.919235 	 -5.188386 	 -3.388659 
H 	 -5.244777 	 -5.551401 	 -2.632203 
H 	 1.917724 	 -1.913491 	 -0.993754 
H 	 1.679322 	 -1.564900 	 0.491808 
H 	 -3.449449 	 -4.505939 	 0.224104 
H 	 -4.456111 	 -4.258453 	 1.393141 
H 	 -3.246547 	 -1.769438 	 0.204762 
H 	 -4.561600 	 -2.128425 	 -0.442991 
H 	 3.112457 	 -6.513399 	 3.349602 
H 	 2.189496 	 -5.432557 	 2.730884 
H 	 3.822232 	 -4.170564 	 7.105554 
H 	 3.538598 	 -3.461440 	 -6.434608 
H 	 -7.128964 	 4.386330 	 2.397269 
H 	 7.163285 	 3.134423 	 3.309704 
H 	 -0.775498 	 -1.995447 	 2.154053 
H 	 -1.028579 	 -2.761338 	 0.740352 
H 	 -2.583552 	 6.946222 	 6.133464 
H 	 -1.338642 	 6.280416 	 5.486327 
H 	 6.294860 	 -6.670454 	 -4.378603 
H 	 5.277934 	 -6.018636 	 -3.393662 
H 	 -4.114379 	 7.204803 	 0.378694 
H 	 -4.153406 	 6.366257 	 1.637195 
H 	 -3.453670 	 -0.090162 	 -2.895965 
H 	 -2.876601 	 -0.039973 	 -1.536537 
H 	 -6.931121 	 -4.888278 	 -1.462736 
H 	 -5.588188 	 -4.458132 	 -0.937202 
H 	 5.875126 	 -7.330417 	 3.558403 
H 	 5.048054 	 6.413429 	 2.823857 
H 	 1.335640 	 2.498822 	 -0.611970 
H 	 1.186764 	 0.897054 	 -0.557739 
H 	 4.236731 	 6.261266 	 6.114801 
H 	 4.031726 	 6.452954 	 4.580967 
H 	 4.749172 	 3.281697 	 4.757135 
H 	 4.662574 	 1.831822 	 5.332867 
H 	 5.934783 	 6.919484 	 -7.019203 
H 	 5.078863 	 6.147206 	 -6.042163 
H 	 0.183752 	 -3.019644 	 4.495447 
H 	 -1.129454 	 -3.654300 	 3.922506 
H 	 2.954287 	 4.233979 	 3.349328 
H 	 4.075424 	 4.046931 	 2.345878 
H 	 3.387636 	 -3.678896 	 -1.121048 
H 	 4.116565 	 -3.404736 	 0.290452 
H 	 -3.228061 	 -2.301153 	 -4.011301 
H 	 -4.597511 	 -1.553466 	 -3.810981 
H 	 -7.290338 	 5.065353 	 5.830969 
H 	 7.275346 	 5.058270 	 4.335520 
H 	 4.355555 	 -2.690066 	 2.699163 
H 	 5.124809 	 -1.734422 	 1.830581 
H 	 1.532600 	 2.327968 	 2.143348 
H 	 0.792410 	 2.789541 	 3.579439 
H 	 4.578566 	 3.744625 	 0.014087 
H 	 3.470361 	 4.654340 	 -0.615488 
H 	 1.143403 	 7.425265 	 3.241625 
H 	 0.531222 	 6.043255 	 3.540705 
H 	 -3.795461 	 6.106458 	 -4.224798 
H 	 -3.036440 	 7.299508 	 -4.931454 
H 	 -2.111694 	 4.395390 	 -1.769028 
H 	 -1.656713 	 4.834354 	 -0.350288 
H 	 -2.637906 	 -3.419830 	 -1.804397 
H 	 -1.555304 	 -3.764736 	 -2.958011 
H 	 -3.117543 	 1.453379 	 1.180051 
H 	 -3.324688 	 1.563699 	 -0.287887 
H 	 -1.480018 	 -5.083108 	 0.602650 
H 	 -0.899232 	 -4.727874 	 -0.751502 
H 	 -4.114611 	 5.532101 	 3.515421 
H 	 -3.014715 	 5.490984 	 4.573271 
H 	 0.960145 	 -5.868617 	 5.289881 
H 	 -2.756477 	 -6.032410 	 -6.902885 
H 	 -5.971998 	 1.263707 	 -0.140658 
H 	 -6.727617 	 -0.019719 	 0.211654 
H 	 5.013391 	 1.877357 	 1.735416 
H 	 3.956969 	 1.285033 	 0.884676 
H 	 3.221466 	 -6.732756 	 -2.126056 
H 	 2.402938 	 -6.411035 	 -3.340056 
H 	 -1.071799 	 -0.023169 	 6.615996 
H 	 -1.233405 	 0.262171 	 5.099427 
H 	 -1.861020 	 -5.367856 	 -5.753950 
O 	 7.302593 	 -0.153862 	 5.114780 
O 	 4.184383 	 -3.857302 	 -4.976463 
O 	 -5.978603 	 -0.967409 	 -2.856115 
O 	 5.360195 	 -0.000261 	 3.229900 
O 	 -6.634304 	 -1.900836 	 0.038364 
O 	 6.267296 	 -2.498885 	 -1.925959 
O 	 -4.269367 	 -4.041094 	 3.517307 
O 	 -6.673601 	 6.203755 	 -2.001014 
O 	 -4.410168 	 -2.782537 	 -6.647360 
O 	 -5.332861 	 3.665542 	 -0.982347 
O 	 2.908118 	 0.773119 	 4.558061 
O 	 -3.976063 	 6.968827 	 -1.299964 
O 	 1.596630 	 4.169805 	 -1.218185 
O 	 6.327951 	 6.567701 	 0.180322 
O 	 -0.558308 	 0.039636 	 -6.104803 
O 	 6.256057 	 0.182407 	 -1.810617 
O 	 2.174363 	 -2.828151 	 -2.622570 
O 	 -6.129634 	 -5.702733 	 -5.801594 
O 	 -3.303380 	 -6.489126 	 6.274025 
O 	 -0.068017 	 7.504853 	 -7.346816 
O 	 -2.671762 	 2.109075 	 6.630458 
O 	 1.191418 	 4.809951 	 -7.341809 
O 	 6.554324 	 -3.050854 	 4.759989 
O 	 -5.982633 	 1.107311 	 3.091774 
O 	 1.101482 	 -4.238441 	 1.727518 
O 	 0.162376 	 0.710543 	 -2.370674 
O 	 -2.599034 	 3.203648 	 -2.996868 
O 	 0.032265 	 2.408937 	 5.942454 
O 	 7.297072 	 3.790101 	 -5.274885 
O 	 6.383348 	 -6.012513 	 7.488507 
O 	 3.207032 	 -0.478876 	 -3.479538 
O 	 6.671654 	 -5.529092 	 -0.748431 
O 	 5.473595 	 -1.214696 	 7.287359 
O 	 -7.292400 	 6.677623 	 -4.727980 
O 	 -7.213683 	 -3.934002 	 2.222366 
O 	 3.721639 	 -3.334054 	 4.325937 
O 	 -6.187875 	 -4.586829 	 5.970257 
O 	 0.304445 	 -3.278958 	 -6.740586 
O 	 0.158367 	 -6.275938 	 -1.406938 
O 	 4.170530 	 5.971040 	 -3.938920 
O 	 -0.993968 	 2.953054 	 -5.247644 
O 	 3.325023 	 -6.713797 	 0.089541 
O 	 -5.326995 	 4.559860 	 1.595583 
O 	 5.781475 	 -0.253165 	 -4.768907 
O 	 -0.268412 	 6.394214 	 -3.217559 
O 	 1.417456 	 -1.791604 	 5.625265 
O 	 -5.863461 	 1.765703 	 -4.396404 
O 	 -4.869883 	 4.521417 	 -4.055435 
O 	 -1.930353 	 -5.212753 	 4.621434 
O 	 -5.168586 	 7.044496 	 4.411172 
O 	 -4.116090 	 -1.409640 	 2.901558 
O 	 1.827762 	 3.866623 	 -4.541065 
O 	 4.036270 	 -5.682531 	 5.974188 
O 	 1.330380 	 4.771759 	 4.689204 
O 	 -0.109428 	 -3.934367 	 -4.245429 
O 	 3.749541 	 1.789742 	 -1.800285 
O 	 -7.008652 	 -2.540896 	 -6.607855 
O 	 2.333035 	 1.661871 	 7.451209 
O 	 2.116910 	 -0.774727 	 -6.045683 
O 	 0.952204 	 -6.606064 	 -4.770114 
O 	 -1.328303 	 3.820954 	 1.213943 
O 	 1.220719 	 6.199244 	 0.366194 
O 	 5.320085 	 2.089417 	 -6.581244 
O 	 -2.441830 	 4.455507 	 -6.815280 
O 	 -4.038645 	 0.675860 	 -6.217048 
O 	 -1.659391 	 -6.486204 	 1.685846 
O 	 -1.491831 	 0.768313 	 2.004724 
O 	 -6.871074 	 -7.043820 	 1.771010 
O 	 -6.848684 	 1.161054 	 7.378926 
O 	 -2.449481 	 -2.978815 	 6.490967 
O 	 -3.408636 	 2.215966 	 4.079700 
O 	 6.098393 	 3.884268 	 -2.865562 
O 	 -4.600634 	 -5.914565 	 -3.330738 
O 	 2.023653 	 -1.146169 	 -0.363440 
O 	 -4.358668 	 -4.171449 	 0.406772 
O 	 -3.842328 	 -1.464933 	 -0.511051 
O 	 2.259139 	 -6.126979 	 3.456136 
O 	 3.305499 	 -3.401152 	 7.457629 
O 	 7.008797 	 4.033048 	 2.875470 
O 	 -0.841529 	 -1.866795 	 1.162150 
O 	 -2.214597 	 6.065280 	 5.875944 
O 	 5.857977 	 -5.809726 	 -4.153670 
O 	 -4.143936 	 7.307085 	 1.384413 
O 	 -3.094328 	 0.589507 	 -2.264407 
O 	 -6.084349 	 -4.434198 	 -1.756244 
O 	 5.028301 	 7.373688 	 3.063802 
O 	 1.607613 	 1.682328 	 -0.168456 
O 	 3.544870 	 6.401843 	 5.438622 
O 	 5.150174 	 2.680430 	 5.455972 
O 	 5.234503 	 6.246644 	 -6.975293 
O 	 -0.458097 	 -2.957267 	 3.730358 
O 	 3.929092 	 4.410421 	 3.231395 
O 	 4.116880 	 -3.953164 	 -0.533465 
O 	 -3.752235 	 -1.453282 	 -4.170896 
O 	 7.482193 	 5.709019 	 5.118515 
O 	 4.728893 	 -2.622337 	 1.766724 
O 	 1.142646 	 2.054450 	 3.001838 
O 	 4.388060 	 4.640117 	 -0.254412 
O 	 0.451265 	 6.775827 	 2.914098 
O 	 -2.936397 	 6.410761 	 -4.645959 
O 	 -1.890643 	 5.201134 	 -1.213924 
O 	 -2.527848 	 -3.648300 	 -2.750228 
O 	 -3.767249 	 1.698820 	 0.540661 
O 	 -1.462300 	 -4.317941 	 -0.062014 
O 	 -3.433426 	 4.943517 	 3.811856 
O 	 0.425079 	 -5.355462 	 5.940141 
O 	 -6.867797 	 0.960335 	 0.156452 
O 	 4.385254 	 2.151663 	 1.052429 
O 	 3.309103 	 -6.483989 	 -3.067005 
O 	 -1.062575 	 -0.454816 	 5.764384 
O 	 -2.212172 	 -6.220800 	 -6.083924 
K 	 7.480512 	 -3.434758 	 -4.235905 
