333
conformation = 41
H 	 7.237236 	 -1.003955 	 5.302608 
H 	 7.117184 	 0.345665 	 6.053272 
H 	 3.680910 	 -3.988010 	 -4.108650 
H 	 4.872999 	 -4.465421 	 -4.968334 
H 	 -5.900619 	 -0.993014 	 -2.069302 
H 	 -6.162197 	 0.059728 	 -3.181950 
H 	 4.514413 	 0.202654 	 3.794126 
H 	 6.056372 	 -0.060975 	 3.703976 
H 	 -6.757621 	 -2.314258 	 0.937927 
H 	 -7.285187 	 -2.287452 	 -0.540088 
H 	 5.399808 	 -2.832281 	 -1.543537 
H 	 5.944552 	 -1.471555 	 -1.792634 
H 	 -3.639644 	 -4.543863 	 4.150113 
H 	 -4.171972 	 -3.210174 	 3.599423 
H 	 -7.310609 	 6.221090 	 -1.179841 
H 	 -5.735993 	 6.491723 	 -1.707953 
H 	 -3.844084 	 -2.605102 	 -7.283171 
H 	 -4.230327 	 -2.019683 	 -5.915304 
H 	 -5.799067 	 4.556876 	 -1.572636 
H 	 -4.534522 	 3.649437 	 -1.292077 
H 	 2.181322 	 -0.102903 	 4.902868 
H 	 2.135892 	 1.179659 	 4.063471 
H 	 -3.175651 	 6.437000 	 -1.286625 
H 	 -4.059629 	 -7.202822 	 -2.007480 
H 	 1.335008 	 4.362557 	 -2.155933 
H 	 1.416418 	 5.003049 	 -0.665374 
H 	 5.670036 	 6.129712 	 0.520366 
H 	 6.982223 	 7.142111 	 0.775341 
H 	 0.250773 	 -0.097209 	 -6.226468 
H 	 -0.717117 	 1.069000 	 -5.812925 
H 	 5.349556 	 0.895045 	 -1.588824 
H 	 6.921686 	 0.782327 	 -1.314386 
H 	 2.469193 	 -1.930326 	 -2.853766 
H 	 1.305215 	 -3.136046 	 -3.011029 
H 	 -5.366759 	 -5.361324 	 -5.255058 
H 	 -6.254599 	 -6.543386 	 -5.779159 
H 	 -2.840855 	 -5.987769 	 5.624899 
H 	 -4.238525 	 -6.774568 	 6.177857 
H 	 -0.805726 	 -7.045760 	 -6.914646 
H 	 0.294527 	 -6.744380 	 6.899953 
H 	 -3.198669 	 2.018790 	 5.920591 
H 	 -2.998995 	 2.933596 	 7.207995 
H 	 0.577716 	 5.648901 	 -7.259200 
H 	 0.544390 	 4.116316 	 7.500908 
H 	 7.002799 	 -3.704487 	 5.516957 
H 	 5.614325 	 -3.070334 	 4.852657 
H 	 -6.520045 	 0.905450 	 2.449880 
H 	 -6.540009 	 0.693524 	 4.000247 
H 	 0.634882 	 -4.324241 	 0.748403 
H 	 0.459040 	 -3.826906 	 2.182372 
H 	 -0.052512 	 -0.189960 	 -1.926715 
H 	 -0.853396 	 0.790904 	 -2.763551 
H 	 -1.958521 	 3.273087 	 -3.685957 
H 	 -2.707963 	 2.374590 	 -2.851936 
H 	 0.405367 	 2.044947 	 6.796539 
H 	 -1.011698 	 2.394721 	 6.311559 
H 	 6.433360 	 3.576178 	 -5.836763 
H 	 6.773523 	 3.613973 	 -4.322402 
H 	 7.065633 	 -6.040535 	 6.758436 
H 	 6.409490 	 -5.262148 	 -6.901189 
H 	 3.285288 	 0.367897 	 -2.782014 
H 	 4.189775 	 -0.323279 	 -3.849465 
H 	 6.385553 	 -6.403852 	 -0.486959 
H 	 5.920656 	 -4.940261 	 -0.427400 
H 	 5.233240 	 -1.287637 	 -6.602706 
H 	 4.622459 	 -2.075002 	 7.180646 
H 	 7.013661 	 5.920696 	 -5.230619 
H 	 -7.143854 	 6.325222 	 -3.836633 
H 	 -6.271831 	 -4.075263 	 2.614429 
H 	 7.287638 	 -3.600821 	 3.000437 
H 	 3.568397 	 -4.184106 	 4.865864 
H 	 2.842821 	 -2.773072 	 4.611173 
H 	 -5.664753 	 -4.778353 	 6.683943 
H 	 -5.573738 	 -4.182899 	 5.327467 
H 	 -0.481796 	 -2.942151 	 -7.183356 
H 	 0.668723 	 -3.958948 	 -7.330756 
H 	 0.119863 	 -6.901043 	 -0.648222 
H 	 -0.184802 	 -6.750585 	 -2.072840 
H 	 3.820307 	 6.696363 	 -3.483403 
H 	 3.117944 	 5.488323 	 -4.023838 
H 	 -1.140400 	 3.687735 	 -5.681011 
H 	 0.060870 	 2.999778 	 -4.813689 
H 	 3.552832 	 -5.875437 	 0.177921 
H 	 4.200878 	 -7.313193 	 0.444530 
H 	 -5.320402 	 4.273149 	 0.660668 
H 	 -4.991758 	 3.611603 	 2.143986 
H 	 6.260175 	 0.198936 	 -3.810530 
H 	 5.704552 	 0.694659 	 -5.211395 
H 	 -0.672875 	 6.184559 	 -2.420482 
H 	 -1.371308 	 6.482837 	 -3.694922 
H 	 1.609177 	 -2.139725 	 6.531361 
H 	 0.569165 	 -1.285812 	 5.710437 
H 	 -6.596567 	 2.417460 	 -4.719183 
H 	 -5.235951 	 1.558528 	 -4.856671 
H 	 -4.131077 	 3.915528 	 -3.936424 
H 	 -5.614237 	 4.164512 	 -4.309742 
H 	 -0.444884 	 -5.333359 	 5.259166 
H 	 -1.983355 	 -5.568449 	 3.782373 
H 	 -5.973321 	 6.560178 	 4.634230 
H 	 -5.353125 	 -7.163139 	 3.797142 
H 	 -3.464225 	 -0.685506 	 2.784726 
H 	 -4.993030 	 -0.685461 	 2.761766 
H 	 2.266715 	 3.082320 	 -4.616720 
H 	 1.721659 	 4.308564 	 -5.469365 
H 	 3.454920 	 -6.619906 	 5.755726 
H 	 4.635951 	 -5.948057 	 6.636192 
H 	 2.074050 	 5.264362 	 5.290724 
H 	 0.968610 	 4.211706 	 5.337155 
H 	 0.286353 	 -4.870687 	 -4.367871 
H 	 0.132305 	 -3.466395 	 -4.880101 
H 	 4.157319 	 2.648636 	 -1.882453 
H 	 3.016105 	 1.772055 	 -1.236686 
H 	 7.301720 	 -1.762594 	 -7.115071 
H 	 -6.238368 	 -2.584994 	 -6.867751 
H 	 2.207117 	 0.731116 	 -7.158426 
H 	 2.641814 	 1.764534 	 6.684417 
H 	 1.745841 	 -1.593784 	 -6.225820 
H 	 2.359674 	 -0.641445 	 -5.109604 
H 	 0.780018 	 -6.822045 	 -5.641772 
H 	 0.569810 	 -7.138701 	 -4.138897 
H 	 -1.590696 	 4.417679 	 2.142001 
H 	 -1.734355 	 3.051086 	 1.253320 
H 	 1.898980 	 6.921619 	 0.350028 
H 	 0.836082 	 6.237809 	 1.340592 
H 	 5.332038 	 2.025896 	 7.482824 
H 	 4.302331 	 1.991876 	 -6.250549 
H 	 -3.041551 	 5.148038 	 -6.075189 
H 	 -2.560224 	 5.131884 	 7.328064 
H 	 -3.465501 	 0.590397 	 -6.783308 
H 	 -3.526101 	 0.112290 	 -5.332820 
H 	 -2.513211 	 -6.938126 	 1.759400 
H 	 -1.027914 	 -7.272521 	 1.836502 
H 	 -0.818494 	 1.163202 	 2.505982 
H 	 -1.249767 	 -0.149599 	 1.718009 
H 	 -5.995722 	 -6.965351 	 1.768816 
H 	 -7.099166 	 -5.864734 	 1.716066 
H 	 -7.152630 	 1.701942 	 -6.700249 
H 	 -6.125443 	 0.632977 	 -7.023787 
H 	 -2.375225 	 -3.745709 	 5.911255 
H 	 -2.210261 	 -2.165707 	 5.989562 
H 	 -4.199546 	 1.796534 	 3.801443 
H 	 -3.473915 	 3.230197 	 3.817946 
H 	 5.377231 	 4.694984 	 -2.927580 
H 	 6.731288 	 4.266870 	 -2.402362 
H 	 -3.697987 	 -5.439108 	 -3.163045 
H 	 -5.203459 	 -5.331377 	 -2.688221 
H 	 1.881605 	 -1.887168 	 -0.777895 
H 	 1.486204 	 -1.302675 	 0.539814 
H 	 -3.424593 	 -4.138841 	 0.428794 
H 	 -4.585776 	 -3.947378 	 1.373694 
H 	 -3.447199 	 -1.725231 	 0.363094 
H 	 -4.775387 	 -1.858666 	 -0.174856 
H 	 3.191784 	 -6.390696 	 3.217117 
H 	 1.938810 	 -5.682012 	 2.604371 
H 	 2.998714 	 -4.023504 	 7.074294 
H 	 3.614577 	 -3.633666 	 -6.441196 
H 	 -7.321872 	 4.023993 	 2.329244 
H 	 6.877068 	 3.399155 	 3.646990 
H 	 -1.009259 	 -2.186327 	 2.028660 
H 	 -1.060480 	 -2.531943 	 0.593609 
H 	 -2.682223 	 7.016719 	 6.079006 
H 	 -1.303690 	 6.407264 	 6.115262 
H 	 6.354301 	 -6.687053 	 -4.577678 
H 	 5.254552 	 -6.114657 	 -3.524428 
H 	 -4.176981 	 7.227346 	 0.258452 
H 	 -4.576483 	 6.400621 	 1.508838 
H 	 -3.123882 	 -0.142323 	 -2.889436 
H 	 -3.494133 	 -0.037934 	 -1.453195 
H 	 -6.909806 	 -4.568468 	 -1.264632 
H 	 -5.469860 	 -4.165635 	 -0.894069 
H 	 5.956933 	 -7.153887 	 2.995827 
H 	 5.060638 	 6.539878 	 2.954033 
H 	 1.450454 	 2.756505 	 -0.382122 
H 	 1.121912 	 1.098528 	 -0.451883 
H 	 4.149595 	 6.195374 	 6.398324 
H 	 4.474870 	 6.647275 	 5.079295 
H 	 4.554856 	 3.507589 	 4.832651 
H 	 4.815018 	 2.016808 	 5.182208 
H 	 5.476961 	 7.142230 	 -6.969556 
H 	 4.468965 	 6.340683 	 -6.182727 
H 	 0.309277 	 -2.637227 	 4.227067 
H 	 -0.827602 	 -3.756406 	 4.310594 
H 	 2.769860 	 4.589607 	 3.519370 
H 	 3.981475 	 4.133954 	 2.648367 
H 	 3.515399 	 -3.508581 	 -1.013963 
H 	 4.231246 	 -3.293240 	 0.380548 
H 	 -3.276709 	 -2.193839 	 -3.676552 
H 	 -4.399247 	 -1.096850 	 -3.895113 
H 	 7.245917 	 4.983118 	 5.789281 
H 	 7.164344 	 5.417382 	 4.386449 
H 	 4.206779 	 -2.852598 	 2.583293 
H 	 4.625509 	 -1.568757 	 2.110732 
H 	 1.333880 	 2.193795 	 2.048986 
H 	 0.736963 	 2.957348 	 3.304278 
H 	 4.475680 	 3.943524 	 0.394543 
H 	 3.498102 	 4.748833 	 -0.564003 
H 	 1.078456 	 7.439571 	 3.098684 
H 	 0.729563 	 6.031433 	 3.662902 
H 	 -3.927342 	 5.945288 	 -4.509757 
H 	 -3.162074 	 7.335005 	 -4.993292 
H 	 -2.090018 	 4.518132 	 -1.759188 
H 	 -1.665197 	 4.767002 	 -0.209040 
H 	 -2.485251 	 -3.361775 	 -1.610486 
H 	 -1.716140 	 -3.633666 	 -2.889709 
H 	 -2.945848 	 1.295787 	 1.309720 
H 	 -3.386372 	 1.649753 	 -0.133615 
H 	 -1.577492 	 -5.078907 	 0.703437 
H 	 -1.280942 	 -4.900366 	 -0.764534 
H 	 -4.174574 	 5.491732 	 3.762633 
H 	 -2.947712 	 5.296075 	 4.611195 
H 	 1.108926 	 -4.991814 	 5.074952 
H 	 -2.910639 	 -6.011664 	 -6.739995 
H 	 -6.082785 	 1.524261 	 0.057807 
H 	 -6.557384 	 0.006282 	 0.189457 
H 	 4.712520 	 1.326237 	 1.763617 
H 	 3.512642 	 1.742498 	 0.766971 
H 	 2.778241 	 -6.469233 	 -2.201882 
H 	 2.463903 	 -6.484726 	 -3.783323 
H 	 -1.151194 	 0.236575 	 6.594016 
H 	 -1.180777 	 0.433663 	 5.134238 
H 	 -2.171117 	 -5.264153 	 -5.505458 
O 	 7.246877 	 -0.032855 	 5.162002 
O 	 4.176046 	 -3.735061 	 -4.880769 
O 	 -5.886504 	 -0.880275 	 -3.068859 
O 	 5.213340 	 -0.039827 	 3.157465 
O 	 -6.769315 	 -1.745782 	 0.125834 
O 	 6.214911 	 -2.419883 	 -1.899435 
O 	 -4.380374 	 -4.179783 	 3.598934 
O 	 -6.674235 	 6.178415 	 -1.934574 
O 	 -4.491728 	 -2.757147 	 -6.585935 
O 	 -5.451962 	 3.823693 	 -1.035436 
O 	 2.784570 	 0.625545 	 4.591576 
O 	 -4.014594 	 6.969880 	 -1.303529 
O 	 1.643978 	 4.203311 	 -1.222618 
O 	 6.288363 	 6.794047 	 0.133737 
O 	 -0.708101 	 0.194285 	 -6.232787 
O 	 6.155434 	 0.293308 	 -1.718421 
O 	 2.136892 	 -2.830113 	 -2.516054 
O 	 -6.127845 	 -5.575104 	 -5.822788 
O 	 -3.312640 	 -6.507375 	 6.485263 
O 	 0.093521 	 7.564448 	 -7.228557 
O 	 -2.868637 	 2.032288 	 6.862248 
O 	 1.135824 	 4.867392 	 -7.145735 
O 	 6.580495 	 -3.024926 	 4.869106 
O 	 -5.979685 	 1.090871 	 3.243847 
O 	 1.160106 	 -4.221665 	 1.587194 
O 	 0.027252 	 0.701037 	 -2.324426 
O 	 -2.644313 	 3.320583 	 -2.981357 
O 	 -0.076905 	 2.280460 	 5.982687 
O 	 7.211715 	 3.664860 	 -5.229105 
O 	 6.247586 	 -5.910190 	 7.300355 
O 	 3.291067 	 -0.417370 	 -3.401573 
O 	 6.653366 	 -5.479700 	 -0.669329 
O 	 5.203227 	 -1.294817 	 7.315036 
O 	 -7.390315 	 6.630413 	 -4.761413 
O 	 -7.133671 	 -3.789779 	 2.192344 
O 	 3.690897 	 -3.244371 	 4.402768 
O 	 -6.217426 	 -4.486034 	 5.980018 
O 	 0.429257 	 -3.122923 	 -6.842921 
O 	 0.039389 	 -6.175871 	 -1.343349 
O 	 4.011286 	 5.827860 	 -3.893909 
O 	 -0.861365 	 2.893262 	 -5.129406 
O 	 3.338939 	 -6.856823 	 0.162860 
O 	 -5.366583 	 4.402188 	 1.669464 
O 	 5.792570 	 -0.094443 	 -4.631669 
O 	 -0.440083 	 6.499911 	 -3.298046 
O 	 1.406315 	 -1.824020 	 5.574982 
O 	 -5.919614 	 1.875510 	 -4.245418 
O 	 -4.810542 	 4.597138 	 -3.972692 
O 	 -2.041550 	 -5.193250 	 4.692128 
O 	 -5.173768 	 7.084535 	 4.521679 
O 	 -4.231105 	 -1.276993 	 2.877656 
O 	 1.861245 	 3.927956 	 -4.561326 
O 	 3.950726 	 -5.749439 	 6.010618 
O 	 1.396624 	 4.822285 	 4.741851 
O 	 -0.063277 	 -3.989352 	 -4.143531 
O 	 3.811153 	 1.700081 	 -1.784925 
O 	 -7.116655 	 -2.381806 	 -6.452921 
O 	 2.109345 	 1.674681 	 7.491110 
O 	 2.091179 	 -0.677236 	 -6.050927 
O 	 1.025651 	 -6.507247 	 -4.701188 
O 	 -1.331518 	 3.942808 	 1.323225 
O 	 1.160209 	 6.235309 	 0.396331 
O 	 5.255489 	 2.071036 	 -6.432689 
O 	 -2.491149 	 4.598150 	 -6.717610 
O 	 -4.028474 	 0.604252 	 -5.964472 
O 	 -1.638485 	 -6.520916 	 1.753734 
O 	 -1.560966 	 0.768395 	 1.992205 
O 	 -6.989955 	 -6.817637 	 1.855789 
O 	 -6.846388 	 1.158010 	 7.487003 
O 	 -2.366322 	 -2.978249 	 6.493769 
O 	 -3.382540 	 2.240656 	 4.068049 
O 	 5.981885 	 3.916860 	 -2.873832 
O 	 -4.538756 	 -5.923636 	 -3.218720 
O 	 1.865155 	 -1.043367 	 -0.316771 
O 	 -4.407569 	 -4.074615 	 0.446221 
O 	 -3.914790 	 -1.472153 	 -0.462357 
O 	 2.218487 	 -6.184418 	 3.384726 
O 	 3.302140 	 -3.282523 	 -7.292459 
O 	 6.828867 	 4.064576 	 2.990511 
O 	 -0.952782 	 -1.763407 	 1.167560 
O 	 -2.204481 	 6.161558 	 5.858169 
O 	 5.829017 	 -5.912953 	 -4.312302 
O 	 -4.274586 	 7.315115 	 1.301866 
O 	 -3.168936 	 0.545648 	 -2.199891 
O 	 -6.051671 	 -4.379499 	 -1.719041 
O 	 5.075610 	 7.487430 	 3.171731 
O 	 1.649753 	 1.819488 	 -0.018537 
O 	 3.643099 	 6.455533 	 5.571995 
O 	 4.980901 	 2.914447 	 5.467196 
O 	 5.104984 	 6.224138 	 -6.968685 
O 	 -0.479413 	 -3.000586 	 3.769273 
O 	 3.740018 	 4.707019 	 3.394146 
O 	 4.185127 	 -3.863213 	 -0.398517 
O 	 -3.601980 	 -1.545983 	 -4.307323 
O 	 -7.396417 	 5.731120 	 5.235394 
O 	 4.620478 	 -2.522358 	 1.781901 
O 	 0.972069 	 2.121012 	 2.942364 
O 	 4.395737 	 4.758422 	 -0.180335 
O 	 0.462065 	 6.689687 	 2.963286 
O 	 -3.075386 	 6.399039 	 -4.605881 
O 	 -1.816194 	 5.210604 	 -1.112892 
O 	 -2.621031 	 -3.583218 	 -2.560505 
O 	 -3.771377 	 1.645586 	 0.788624 
O 	 -1.558550 	 -4.376203 	 0.028296 
O 	 -3.384508 	 4.909152 	 3.835951 
O 	 0.463146 	 -5.280665 	 5.756826 
O 	 -6.870023 	 0.953509 	 0.156628 
O 	 4.370896 	 2.060825 	 1.185852 
O 	 3.224340 	 -6.451629 	 -3.062851 
O 	 -1.007430 	 -0.314111 	 5.745654 
O 	 -2.396000 	 -6.148930 	 -5.901288 
K 	 7.400163 	 -3.445111 	 -4.214423 
