333
conformation = 74
H 	 7.110452 	 -1.065558 	 5.132494 
H 	 -7.444066 	 0.215714 	 5.976884 
H 	 3.570163 	 -3.789250 	 -4.032189 
H 	 4.601855 	 -4.666968 	 -4.891801 
H 	 -6.246887 	 -1.014656 	 -2.436138 
H 	 -6.120612 	 0.093961 	 -3.493888 
H 	 4.127283 	 -0.095573 	 3.353912 
H 	 5.598386 	 -0.147090 	 3.777578 
H 	 -6.977775 	 -2.428348 	 0.854373 
H 	 7.307703 	 -1.942765 	 -0.528185 
H 	 5.464164 	 -2.807079 	 -1.391580 
H 	 5.885627 	 -1.470379 	 -1.842666 
H 	 -3.560237 	 -4.529095 	 3.847404 
H 	 -4.513841 	 -3.304223 	 3.542747 
H 	 -7.359922 	 6.612197 	 -1.412507 
H 	 -5.819472 	 6.445716 	 -1.903749 
H 	 -3.887569 	 -3.031402 	 -7.319138 
H 	 -4.044932 	 -2.712210 	 -5.822049 
H 	 -6.138766 	 4.519399 	 -1.490735 
H 	 -4.769964 	 3.770564 	 -1.723577 
H 	 2.316431 	 -0.441949 	 4.766371 
H 	 2.024318 	 0.801700 	 3.929120 
H 	 -3.311522 	 6.325170 	 -1.557057 
H 	 -4.144621 	 -7.292335 	 -2.178718 
H 	 1.287955 	 4.223271 	 -2.201654 
H 	 1.188689 	 4.892786 	 -0.759295 
H 	 5.859207 	 5.979176 	 -0.145684 
H 	 6.691235 	 7.044891 	 0.886209 
H 	 0.016157 	 -0.033388 	 -6.130539 
H 	 -0.908796 	 1.181046 	 -6.262516 
H 	 5.214983 	 0.686728 	 -1.472920 
H 	 6.754026 	 0.529108 	 -1.079913 
H 	 2.637857 	 -2.173083 	 -2.913129 
H 	 1.283478 	 -3.122060 	 -3.067215 
H 	 -5.301661 	 -5.263551 	 -5.539157 
H 	 -6.312164 	 -6.447436 	 -5.569599 
H 	 -2.875212 	 -6.055479 	 5.820861 
H 	 -4.262261 	 -6.603104 	 6.093539 
H 	 -0.662960 	 -6.939930 	 -6.908123 
H 	 0.527077 	 -6.713579 	 7.026141 
H 	 -3.316349 	 1.969035 	 5.943009 
H 	 -3.408266 	 2.676282 	 7.389338 
H 	 0.801312 	 5.737711 	 -7.011569 
H 	 0.379057 	 4.409328 	 7.397656 
H 	 7.060543 	 -3.675689 	 5.386250 
H 	 5.627072 	 -3.025705 	 4.904419 
H 	 -6.499208 	 1.504696 	 2.631379 
H 	 -6.722114 	 0.614098 	 3.915692 
H 	 0.423519 	 -4.782402 	 1.009987 
H 	 0.779262 	 -3.923951 	 2.165961 
H 	 -0.006080 	 -0.186343 	 -1.766298 
H 	 -1.072967 	 0.764100 	 -2.300011 
H 	 -2.043540 	 2.911541 	 -3.743883 
H 	 -2.879233 	 2.398846 	 -2.661620 
H 	 0.462590 	 1.763067 	 6.373860 
H 	 -0.988713 	 2.160173 	 6.552847 
H 	 6.310407 	 3.092665 	 -5.762593 
H 	 6.784526 	 3.612483 	 -4.361736 
H 	 6.981072 	 -6.008594 	 6.495524 
H 	 6.517072 	 -5.483751 	 -6.990432 
H 	 3.291072 	 0.286739 	 -2.964775 
H 	 4.238904 	 -0.416664 	 -3.927458 
H 	 6.192897 	 -6.325321 	 -0.412964 
H 	 5.788203 	 -4.825971 	 -0.588732 
H 	 5.137301 	 -1.177651 	 -6.675058 
H 	 4.312587 	 -2.098912 	 7.321180 
H 	 7.071883 	 5.765198 	 -5.300144 
H 	 -7.173675 	 6.399263 	 -3.934660 
H 	 -6.186736 	 -3.976516 	 2.620423 
H 	 7.348397 	 -3.385381 	 2.887451 
H 	 3.548301 	 -4.214514 	 4.843505 
H 	 3.033420 	 -2.691947 	 4.888867 
H 	 -5.706011 	 -4.486224 	 6.723731 
H 	 -5.635981 	 -4.732008 	 5.192653 
H 	 -0.468230 	 -2.687531 	 -7.207921 
H 	 0.410660 	 -3.825771 	 7.246120 
H 	 0.482592 	 -7.004988 	 -1.014606 
H 	 -0.348390 	 -6.549898 	 -2.241708 
H 	 3.400264 	 6.224698 	 -3.330158 
H 	 3.289192 	 4.896784 	 -4.030528 
H 	 -1.284929 	 3.262644 	 -5.747090 
H 	 0.065841 	 3.314629 	 -4.877886 
H 	 3.439887 	 -6.061912 	 -0.087455 
H 	 4.296514 	 7.532732 	 0.057068 
H 	 -5.571073 	 3.753144 	 0.732612 
H 	 -4.684685 	 3.834812 	 2.098520 
H 	 6.112900 	 0.072663 	 -3.662680 
H 	 6.043964 	 0.758297 	 -5.037458 
H 	 -0.990136 	 6.036857 	 -2.642439 
H 	 -1.491824 	 6.420369 	 -4.011004 
H 	 1.490523 	 -2.437493 	 6.240924 
H 	 0.601292 	 -1.242069 	 5.772233 
H 	 -6.479921 	 2.111026 	 -4.942922 
H 	 -5.057081 	 1.487834 	 -4.472375 
H 	 -4.368661 	 3.832015 	 -3.717510 
H 	 -5.602620 	 4.333368 	 -4.528017 
H 	 -0.493319 	 -5.316306 	 5.233417 
H 	 -1.952618 	 -5.946524 	 4.035063 
H 	 -6.054707 	 7.117958 	 4.942784 
H 	 -5.206532 	 -7.213561 	 3.751157 
H 	 -3.427440 	 -0.890478 	 2.956078 
H 	 -4.917350 	 -0.465945 	 2.922029 
H 	 2.453051 	 3.148311 	 -4.471001 
H 	 1.708671 	 3.992873 	 -5.654333 
H 	 3.619292 	 -6.800930 	 5.808395 
H 	 4.636089 	 -5.612720 	 5.986759 
H 	 2.002188 	 5.192029 	 5.388349 
H 	 1.130355 	 3.925197 	 5.153538 
H 	 0.410292 	 -4.909917 	 -4.186209 
H 	 -0.141276 	 -3.789022 	 -5.010290 
H 	 4.006557 	 2.525133 	 -2.231926 
H 	 3.184187 	 1.806367 	 -1.126677 
H 	 7.042306 	 -2.086460 	 -7.286171 
H 	 -6.362612 	 -2.154877 	 -6.830000 
H 	 2.019587 	 0.827654 	 -6.889261 
H 	 2.464722 	 1.301247 	 6.653144 
H 	 2.527832 	 -1.406658 	 -6.540133 
H 	 2.424552 	 -0.597934 	 -5.189358 
H 	 0.976680 	 -6.822693 	 -5.685682 
H 	 0.552323 	 -7.229706 	 -4.253257 
H 	 -1.770498 	 4.622880 	 2.034093 
H 	 -1.964094 	 3.241269 	 1.155822 
H 	 2.004427 	 6.621142 	 0.333312 
H 	 0.798221 	 6.175269 	 1.247358 
H 	 5.171613 	 2.357967 	 -7.340150 
H 	 4.128556 	 2.016706 	 -6.191258 
H 	 -2.673295 	 5.338788 	 -5.996185 
H 	 -2.445654 	 5.230540 	 7.361761 
H 	 -3.612858 	 0.987018 	 -6.546799 
H 	 -3.572158 	 -0.343456 	 -5.781588 
H 	 -2.560881 	 -7.008256 	 1.710639 
H 	 -1.122134 	 -7.230175 	 2.319210 
H 	 -1.019889 	 1.146820 	 2.561376 
H 	 -1.087727 	 -0.160427 	 1.644686 
H 	 -6.227681 	 -6.946154 	 1.444508 
H 	 -7.251560 	 -5.754349 	 1.631116 
H 	 -7.388556 	 1.578909 	 -6.710208 
H 	 -5.982630 	 0.890492 	 -6.966467 
H 	 -2.027184 	 -3.737834 	 5.788392 
H 	 -2.107156 	 -2.116591 	 5.989981 
H 	 -4.271824 	 1.843633 	 3.728080 
H 	 -3.425399 	 3.139122 	 4.086615 
H 	 5.361909 	 4.680349 	 -3.185046 
H 	 6.280478 	 4.152356 	 -2.067662 
H 	 -3.651899 	 -5.371531 	 -3.162130 
H 	 -5.108664 	 -5.487837 	 -2.673588 
H 	 1.690558 	 -1.693526 	 -1.057929 
H 	 1.041723 	 -1.464611 	 0.311851 
H 	 -3.579817 	 -4.226146 	 0.037296 
H 	 -4.212227 	 -4.181536 	 1.409679 
H 	 -3.619259 	 -1.090974 	 0.292059 
H 	 -4.893670 	 -1.611632 	 -0.186453 
H 	 3.094716 	 -6.498003 	 3.134041 
H 	 2.034959 	 -5.543364 	 2.544034 
H 	 3.551246 	 -4.122406 	 7.198715 
H 	 3.295732 	 -3.415542 	 -6.426654 
H 	 -7.270961 	 4.018037 	 2.688685 
H 	 6.319911 	 3.214981 	 3.394321 
H 	 -0.874738 	 -2.449261 	 1.769038 
H 	 -1.392898 	 -2.322764 	 0.394948 
H 	 -2.585380 	 6.956321 	 6.035392 
H 	 -1.169175 	 6.387486 	 6.006801 
H 	 6.441896 	 -6.853138 	 -4.619162 
H 	 5.024730 	 -6.406335 	 -4.049392 
H 	 -4.270123 	 7.365593 	 0.203749 
H 	 -4.357763 	 6.275504 	 1.246473 
H 	 -3.152959 	 0.245455 	 -3.226899 
H 	 -3.699346 	 -0.321878 	 -1.913166 
H 	 -6.564453 	 -4.965857 	 -1.205491 
H 	 -5.545787 	 -3.862871 	 -1.051046 
H 	 5.888797 	 -7.277402 	 2.618729 
H 	 4.740743 	 6.639206 	 2.831258 
H 	 1.499162 	 2.772865 	 -0.455665 
H 	 1.231289 	 1.101533 	 -0.316231 
H 	 4.233318 	 6.208658 	 6.487492 
H 	 4.370757 	 6.225525 	 5.012174 
H 	 4.572356 	 3.878020 	 5.069381 
H 	 4.684972 	 2.369167 	 4.649146 
H 	 5.256399 	 7.098961 	 -6.950596 
H 	 4.588853 	 6.068435 	 -6.087778 
H 	 0.008336 	 -2.909773 	 4.468467 
H 	 -1.142217 	 -3.854477 	 3.835652 
H 	 2.748026 	 4.876965 	 3.676621 
H 	 3.704014 	 3.960445 	 2.875736 
H 	 3.359470 	 -3.778972 	 -0.882753 
H 	 4.235508 	 -3.279674 	 0.334005 
H 	 -3.056936 	 -2.336455 	 -3.841938 
H 	 -4.453868 	 -1.613407 	 -4.112378 
H 	 7.121800 	 5.174420 	 6.010985 
H 	 7.240058 	 5.029772 	 4.547428 
H 	 4.171096 	 -3.019835 	 2.503071 
H 	 4.875646 	 -1.754705 	 2.283898 
H 	 0.763098 	 1.897266 	 1.841811 
H 	 0.874127 	 3.045819 	 2.860292 
H 	 4.530653 	 3.829943 	 0.198476 
H 	 3.534958 	 4.732832 	 -0.638559 
H 	 1.101869 	 7.208991 	 3.120318 
H 	 0.419897 	 5.848774 	 3.578730 
H 	 -3.851617 	 5.906195 	 -4.178107 
H 	 -3.401357 	 7.225986 	 -4.912138 
H 	 -2.041433 	 4.344082 	 -1.590196 
H 	 -1.521699 	 4.984540 	 -0.211382 
H 	 -2.656030 	 -3.042015 	 -1.785698 
H 	 -1.777829 	 -3.722928 	 -2.797178 
H 	 -2.990649 	 1.167774 	 1.306316 
H 	 -3.590963 	 1.588730 	 -0.044070 
H 	 -1.657274 	 -5.134907 	 0.809079 
H 	 -1.089364 	 -5.036803 	 -0.580171 
H 	 -4.064710 	 5.367815 	 3.910008 
H 	 -2.679276 	 5.158304 	 4.300063 
H 	 1.010894 	 -5.752811 	 4.884433 
H 	 -2.963884 	 -6.277131 	 -6.744937 
H 	 -5.951562 	 1.319216 	 0.059455 
H 	 -6.715502 	 -0.043158 	 0.319343 
H 	 4.715355 	 1.106033 	 1.572389 
H 	 3.332184 	 1.767434 	 1.035591 
H 	 2.520497 	 -6.216147 	 -2.445007 
H 	 2.594902 	 -6.448666 	 -3.955755 
H 	 -0.979859 	 -0.113686 	 6.634832 
H 	 -0.814647 	 0.537910 	 5.338101 
H 	 -2.706726 	 -5.176568 	 -5.672562 
O 	 7.183578 	 -0.079813 	 5.072115 
O 	 4.203803 	 -3.749122 	 -4.794953 
O 	 -5.906624 	 -0.869990 	 -3.327666 
O 	 5.025334 	 -0.106077 	 2.976262 
O 	 -6.851087 	 -1.764827 	 0.113512 
O 	 6.147459 	 -2.430502 	 -1.950381 
O 	 -4.535295 	 -4.295207 	 3.609888 
O 	 -6.746929 	 6.061767 	 -1.968977 
O 	 -4.576455 	 -2.835584 	 -6.665101 
O 	 -5.525753 	 3.829117 	 -1.145048 
O 	 2.699636 	 0.467857 	 4.574438 
O 	 -4.077955 	 6.930571 	 -1.425107 
O 	 1.680222 	 4.210073 	 -1.328377 
O 	 6.270703 	 6.890245 	 -0.005203 
O 	 -0.875093 	 0.239303 	 -6.475420 
O 	 6.077573 	 0.350509 	 -1.791269 
O 	 2.124541 	 -2.938099 	 -2.510116 
O 	 -6.106796 	 -5.579766 	 -5.933782 
O 	 -3.417545 	 -6.535898 	 6.528909 
O 	 0.173294 	 7.533810 	 -7.238007 
O 	 -3.002958 	 1.916842 	 6.897547 
O 	 1.074166 	 4.815033 	 -7.034105 
O 	 6.602947 	 -3.035812 	 4.821690 
O 	 -6.015335 	 0.972607 	 3.269171 
O 	 1.201407 	 -4.303612 	 1.379763 
O 	 -0.107219 	 0.603823 	 -2.401133 
O 	 -2.657181 	 3.264865 	 -3.056323 
O 	 -0.221116 	 2.315214 	 5.939409 
O 	 7.082345 	 3.551631 	 -5.319440 
O 	 6.219816 	 -5.925602 	 7.110271 
O 	 3.307411 	 -0.496066 	 -3.531084 
O 	 6.538279 	 -5.478558 	 -0.693052 
O 	 5.006071 	 -1.399250 	 7.271645 
O 	 7.364721 	 6.606621 	 -4.882929 
O 	 -7.040178 	 -3.762756 	 2.142233 
O 	 3.659811 	 -3.282853 	 4.370766 
O 	 -6.263757 	 -4.544942 	 5.915882 
O 	 0.407387 	 -3.069755 	 -7.036627 
O 	 -0.074304 	 -6.223143 	 -1.373514 
O 	 3.886661 	 5.651466 	 -3.963844 
O 	 -0.764983 	 2.789218 	 -5.071062 
O 	 3.346017 	 -7.003345 	 0.111750 
O 	 -5.461075 	 4.190632 	 1.640256 
O 	 5.783982 	 -0.050758 	 -4.577887 
O 	 -0.694246 	 6.525447 	 -3.422339 
O 	 1.343216 	 -1.832694 	 5.437193 
O 	 -5.955955 	 1.811977 	 -4.162695 
O 	 -4.870967 	 4.622509 	 -3.999614 
O 	 -2.139889 	 -5.217416 	 4.652182 
O 	 -5.159937 	 7.072063 	 4.505630 
O 	 -4.311337 	 -1.236723 	 2.737097 
O 	 1.844347 	 3.870537 	 -4.660683 
O 	 3.694894 	 -5.758930 	 5.928435 
O 	 1.382779 	 4.770160 	 4.726089 
O 	 -0.056500 	 -4.067906 	 -4.096151 
O 	 3.811548 	 1.639229 	 -1.898458 
O 	 -7.279575 	 -2.300927 	 -6.500445 
O 	 2.012645 	 1.653475 	 7.466746 
O 	 1.980217 	 -0.726008 	 -6.077025 
O 	 1.045503 	 -6.517667 	 -4.717071 
O 	 -1.360173 	 3.981665 	 1.393949 
O 	 1.083238 	 6.285451 	 0.304967 
O 	 5.086172 	 1.974703 	 -6.452048 
O 	 -2.556992 	 4.631938 	 -6.741668 
O 	 -4.073793 	 0.468290 	 -5.850542 
O 	 -1.675871 	 -6.622313 	 1.759874 
O 	 -1.588269 	 0.651040 	 1.935219 
O 	 -7.070111 	 -6.667505 	 1.924306 
O 	 -6.834915 	 1.095265 	 7.523011 
O 	 -2.254882 	 -3.012136 	 6.392298 
O 	 -3.395516 	 2.129314 	 4.004633 
O 	 5.839995 	 3.874423 	 -2.935471 
O 	 -4.430314 	 -5.996849 	 -3.234967 
O 	 1.670145 	 -1.013530 	 -0.336895 
O 	 -4.473278 	 -4.103473 	 0.471074 
O 	 -3.972876 	 -1.552246 	 -0.499272 
O 	 2.169764 	 -6.257766 	 3.210827 
O 	 3.180194 	 -3.303157 	 7.520112 
O 	 6.673581 	 4.046504 	 2.971261 
O 	 -1.078916 	 -1.783542 	 1.122004 
O 	 -2.097568 	 6.119528 	 5.854022 
O 	 5.830201 	 -6.091405 	 -4.542083 
O 	 -4.460404 	 7.233367 	 1.213461 
O 	 -3.173190 	 0.458021 	 -2.237144 
O 	 -6.064813 	 -4.363144 	 -1.798123 
O 	 5.097053 	 7.487338 	 3.160046 
O 	 1.654493 	 1.909172 	 0.076960 
O 	 3.651715 	 6.408993 	 5.675949 
O 	 4.828167 	 3.000705 	 5.373132 
O 	 4.956817 	 6.146441 	 -6.997046 
O 	 -0.497672 	 -3.117865 	 3.617958 
O 	 3.681048 	 4.805955 	 3.332271 
O 	 4.194768 	 -3.911008 	 -0.398805 
O 	 -3.492927 	 -1.655012 	 -4.372313 
O 	 -7.504858 	 5.654183 	 5.231121 
O 	 4.483613 	 -2.505796 	 1.744316 
O 	 0.799668 	 2.074253 	 2.779980 
O 	 4.392882 	 4.734462 	 -0.141791 
O 	 0.417442 	 6.546083 	 2.898364 
O 	 -3.133814 	 6.335072 	 -4.679798 
O 	 -1.776090 	 5.167733 	 -1.172248 
O 	 -2.691918 	 -3.602572 	 -2.579205 
O 	 -3.840726 	 1.614101 	 0.885313 
O 	 -1.649448 	 -4.527523 	 0.061892 
O 	 -3.331280 	 4.797943 	 3.694493 
O 	 0.475617 	 -5.278817 	 5.577775 
O 	 -6.862546 	 0.929429 	 0.117631 
O 	 4.304019 	 1.957270 	 1.266282 
O 	 3.159736 	 -6.488655 	 -3.095349 
O 	 -1.029818 	 -0.398091 	 5.658700 
O 	 -2.541341 	 -6.125360 	 -5.849330 
K 	 7.316795 	 -3.510169 	 -4.224448 
