333
conformation = 14
H 	 6.881523 	 -0.996560 	 5.444950 
H 	 7.348147 	 0.281456 	 6.039129 
H 	 3.446003 	 -3.685464 	 -4.247085 
H 	 4.525440 	 -4.759543 	 -4.813504 
H 	 -5.724942 	 -0.794976 	 -1.934072 
H 	 -6.122541 	 -0.018015 	 -3.200369 
H 	 4.477454 	 -0.035171 	 3.827067 
H 	 6.013710 	 0.112930 	 3.864622 
H 	 -6.947713 	 -2.466770 	 0.851700 
H 	 7.436332 	 -2.110023 	 -0.526328 
H 	 5.530516 	 -2.879348 	 -1.300222 
H 	 6.018981 	 -1.502689 	 -1.786074 
H 	 -3.555387 	 -4.571368 	 3.783731 
H 	 -4.036206 	 -3.165830 	 3.501982 
H 	 -7.404341 	 6.277220 	 -1.211708 
H 	 -5.888635 	 6.654670 	 -1.704400 
H 	 -3.808537 	 -2.773486 	 -7.276683 
H 	 -4.282266 	 -2.036220 	 -5.969283 
H 	 -5.872521 	 4.314173 	 -1.582104 
H 	 -4.573473 	 3.464601 	 -1.316966 
H 	 2.340268 	 -0.035159 	 5.029016 
H 	 2.036183 	 1.173201 	 4.111363 
H 	 -3.391178 	 6.244909 	 -1.252321 
H 	 -4.004559 	 -7.347480 	 -2.062741 
H 	 1.304754 	 4.382751 	 -2.121226 
H 	 1.171951 	 4.874082 	 -0.611422 
H 	 5.633061 	 5.817368 	 0.257259 
H 	 6.667703 	 6.922064 	 1.059969 
H 	 0.291306 	 -0.058223 	 -5.899435 
H 	 -0.877212 	 0.889513 	 -5.658435 
H 	 5.282539 	 0.657171 	 -1.703538 
H 	 6.595497 	 0.540300 	 -0.947529 
H 	 2.270479 	 -1.992775 	 -3.021116 
H 	 1.327685 	 -3.248933 	 -3.120811 
H 	 -5.506982 	 -5.760617 	 -5.124516 
H 	 -6.738331 	 -6.473434 	 -5.614606 
H 	 -2.857143 	 -5.917503 	 5.591912 
H 	 -4.219856 	 -6.734601 	 5.911802 
H 	 -0.990803 	 -7.102091 	 -6.941063 
H 	 0.125801 	 -6.695791 	 6.993165 
H 	 -3.229257 	 2.278325 	 5.828688 
H 	 -2.891854 	 2.897082 	 7.265373 
H 	 0.453578 	 5.517484 	 -7.225572 
H 	 0.622598 	 4.005368 	 7.413721 
H 	 6.879733 	 -3.485005 	 5.636446 
H 	 5.536165 	 -3.067739 	 4.926554 
H 	 -6.459816 	 0.824536 	 2.321664 
H 	 -6.579706 	 0.645229 	 3.877665 
H 	 0.765473 	 -3.977938 	 0.814427 
H 	 0.324066 	 -3.867548 	 2.250233 
H 	 0.244061 	 -0.246337 	 -2.087402 
H 	 -0.901669 	 0.742112 	 -2.617358 
H 	 -2.059187 	 3.077590 	 -3.760971 
H 	 -2.914078 	 2.273545 	 -2.759588 
H 	 0.339954 	 1.794939 	 6.695765 
H 	 -1.062164 	 2.250511 	 6.176034 
H 	 6.654509 	 3.448002 	 -5.997874 
H 	 6.592168 	 3.876616 	 -4.479032 
H 	 6.838913 	 -5.843778 	 6.674442 
H 	 6.492357 	 -5.319798 	 -6.782536 
H 	 3.267171 	 0.362653 	 -2.954343 
H 	 4.093289 	 -0.613763 	 -3.726487 
H 	 6.428134 	 -6.455723 	 -0.871272 
H 	 5.712551 	 -5.108267 	 -0.727508 
H 	 5.018299 	 -1.051735 	 -6.662924 
H 	 4.717415 	 -1.992072 	 7.117140 
H 	 7.365817 	 5.741276 	 -5.106564 
H 	 -7.053870 	 6.537931 	 -3.741652 
H 	 -6.531334 	 -3.994644 	 2.913650 
H 	 6.911329 	 -3.673092 	 2.859188 
H 	 3.452039 	 -4.325134 	 4.609401 
H 	 2.819304 	 -2.822038 	 4.667952 
H 	 -5.916640 	 -4.549944 	 6.879546 
H 	 -5.578745 	 -4.249487 	 5.387594 
H 	 -0.523371 	 -3.247650 	 -7.304420 
H 	 0.848519 	 -3.881935 	 -7.217441 
H 	 -0.412608 	 -6.589199 	 -0.523065 
H 	 -0.306146 	 -6.900929 	 -1.985112 
H 	 3.978350 	 6.896401 	 -3.819674 
H 	 3.116410 	 5.665441 	 -3.886563 
H 	 -1.429282 	 3.529641 	 -5.867654 
H 	 -0.151484 	 3.270532 	 -4.899507 
H 	 3.407712 	 -5.812323 	 0.279784 
H 	 4.096034 	 -7.209349 	 0.491392 
H 	 -5.489225 	 4.573251 	 0.637159 
H 	 -5.001854 	 3.600729 	 1.744598 
H 	 6.132723 	 0.201296 	 -3.941091 
H 	 5.613340 	 0.467748 	 -5.385003 
H 	 -0.445560 	 5.867954 	 -2.405307 
H 	 -1.306363 	 6.306221 	 -3.521036 
H 	 1.647854 	 -2.008876 	 6.601311 
H 	 0.494961 	 -1.314298 	 5.638301 
H 	 -6.806940 	 2.287124 	 -4.437245 
H 	 -5.546108 	 1.657502 	 -5.250287 
H 	 -4.249098 	 3.906707 	 -3.628922 
H 	 -5.524063 	 3.887263 	 -4.434200 
H 	 -0.508459 	 -5.318179 	 5.423729 
H 	 -1.864910 	 -5.742237 	 3.864827 
H 	 -5.853183 	 6.326969 	 4.888120 
H 	 -5.924447 	 -7.309906 	 3.992083 
H 	 -3.512699 	 -0.745055 	 2.810847 
H 	 -4.986612 	 -0.854677 	 3.230822 
H 	 2.222760 	 3.140476 	 -4.881860 
H 	 1.479580 	 4.500636 	 -5.210440 
H 	 3.463458 	 -6.605109 	 5.922920 
H 	 4.729988 	 -5.954649 	 6.525435 
H 	 2.012493 	 5.305035 	 5.228369 
H 	 0.786614 	 4.243202 	 5.391433 
H 	 0.034294 	 -4.930237 	 -4.276696 
H 	 -0.090735 	 -3.595935 	 -5.119660 
H 	 4.292929 	 2.524402 	 -1.583380 
H 	 2.971692 	 1.745134 	 -1.013060 
H 	 7.243334 	 -1.922460 	 -7.156873 
H 	 -6.151109 	 -2.559103 	 -6.757633 
H 	 2.165805 	 0.659185 	 -7.322123 
H 	 2.514454 	 1.788343 	 6.576508 
H 	 1.655794 	 -1.676397 	 -6.048230 
H 	 2.354166 	 -0.560288 	 -5.074864 
H 	 0.914364 	 -6.756890 	 -5.695505 
H 	 0.397512 	 7.517322 	 -4.388679 
H 	 -1.969530 	 4.320290 	 1.936231 
H 	 -1.487334 	 2.854009 	 1.336373 
H 	 1.797976 	 6.890997 	 0.377869 
H 	 0.894187 	 6.173374 	 1.384747 
H 	 5.620822 	 1.726170 	 -7.331569 
H 	 4.242292 	 2.092902 	 -6.560090 
H 	 -2.762363 	 5.136019 	 -6.011528 
H 	 -2.269989 	 5.072167 	 7.394738 
H 	 -3.577527 	 1.232084 	 -6.712202 
H 	 -3.489961 	 0.113711 	 -5.622453 
H 	 -2.494231 	 -7.099538 	 1.491618 
H 	 -1.026477 	 -7.124193 	 2.056486 
H 	 -0.749427 	 1.175944 	 2.303063 
H 	 -1.382710 	 0.210171 	 1.235145 
H 	 -6.040431 	 -7.113319 	 1.501128 
H 	 -7.306843 	 -6.131936 	 1.547217 
H 	 -7.243346 	 1.604130 	 -6.690830 
H 	 -6.343749 	 0.453531 	 -7.110921 
H 	 -2.771771 	 -3.661562 	 5.858241 
H 	 -2.156372 	 -2.193713 	 6.064831 
H 	 -4.259046 	 1.766721 	 3.779800 
H 	 -3.614566 	 3.194325 	 4.074155 
H 	 5.322555 	 4.560981 	 -2.874232 
H 	 6.595289 	 4.340842 	 -2.254687 
H 	 -4.038681 	 -5.175987 	 -3.287243 
H 	 -5.301459 	 -5.555365 	 -2.621984 
H 	 1.882331 	 -1.925533 	 -0.906694 
H 	 1.621979 	 -1.424019 	 0.575195 
H 	 -3.480186 	 -4.391686 	 0.381411 
H 	 -4.614777 	 -4.147769 	 1.387277 
H 	 -3.396226 	 -1.859595 	 0.244301 
H 	 -4.636993 	 -2.161630 	 -0.400332 
H 	 3.058554 	 -6.565280 	 3.357297 
H 	 2.070300 	 -5.469222 	 2.770954 
H 	 3.429086 	 -4.237414 	 7.135061 
H 	 3.450264 	 -3.458043 	 -6.408668 
H 	 -7.233185 	 4.163255 	 2.308542 
H 	 7.125744 	 3.226638 	 3.403883 
H 	 -0.971468 	 -2.024541 	 2.130430 
H 	 -0.964160 	 -2.747727 	 0.838023 
H 	 -2.679367 	 7.026981 	 6.188559 
H 	 -1.380240 	 6.266348 	 5.698716 
H 	 6.260233 	 -6.637538 	 -4.446166 
H 	 5.262175 	 -6.016457 	 -3.316613 
H 	 -4.326248 	 7.158020 	 0.434650 
H 	 -4.368438 	 6.393250 	 1.717688 
H 	 -3.439440 	 -0.250080 	 -2.799879 
H 	 -2.998421 	 0.123153 	 -1.354706 
H 	 -6.944183 	 -5.006485 	 -1.596932 
H 	 -5.626834 	 -4.587293 	 -0.839360 
H 	 5.817460 	 -7.325356 	 3.460544 
H 	 5.018524 	 6.437201 	 2.942723 
H 	 1.241917 	 2.538878 	 -0.523643 
H 	 1.063426 	 0.927599 	 -0.525951 
H 	 4.197102 	 6.363459 	 6.195919 
H 	 4.120904 	 6.528961 	 4.735426 
H 	 4.535169 	 3.263306 	 4.833923 
H 	 4.663702 	 1.851535 	 5.468695 
H 	 5.762450 	 6.968317 	 -6.970303 
H 	 4.884007 	 6.280114 	 -5.970220 
H 	 0.216811 	 -2.922643 	 4.417880 
H 	 -1.207437 	 -3.588647 	 4.230315 
H 	 2.842964 	 4.211738 	 3.465772 
H 	 4.052289 	 4.207693 	 2.424902 
H 	 3.304362 	 -3.670140 	 -1.028852 
H 	 4.084266 	 -3.322745 	 0.371002 
H 	 -3.327740 	 -2.332578 	 -3.978055 
H 	 -4.767791 	 -1.565902 	 -3.790071 
H 	 -7.408574 	 4.984767 	 5.806044 
H 	 7.072294 	 5.253906 	 4.411492 
H 	 4.287497 	 -2.695143 	 2.717772 
H 	 4.858921 	 -1.636212 	 1.830207 
H 	 1.458158 	 2.406926 	 2.250208 
H 	 0.676232 	 2.814311 	 3.467698 
H 	 4.496127 	 3.772826 	 0.155934 
H 	 3.383399 	 4.605407 	 -0.546472 
H 	 1.062382 	 7.420885 	 3.215564 
H 	 0.430731 	 5.984137 	 3.598729 
H 	 -3.910826 	 6.046905 	 -4.236544 
H 	 -3.120038 	 7.325010 	 -4.918673 
H 	 -2.178865 	 4.445407 	 -1.731606 
H 	 -1.659536 	 4.783642 	 -0.285229 
H 	 -2.623179 	 -3.538337 	 -1.681192 
H 	 -1.703649 	 -3.708092 	 -2.841011 
H 	 -3.129584 	 1.372981 	 1.314776 
H 	 -3.399694 	 1.505881 	 -0.243560 
H 	 -1.505000 	 -5.040190 	 0.715838 
H 	 -1.127342 	 -4.753091 	 -0.801883 
H 	 -4.143308 	 5.541189 	 3.479572 
H 	 -2.997967 	 5.473641 	 4.502810 
H 	 1.072768 	 -5.588490 	 5.288143 
H 	 -2.900584 	 -6.014051 	 -6.771014 
H 	 -6.068215 	 1.320717 	 -0.056075 
H 	 -6.850857 	 -0.033548 	 0.222900 
H 	 4.918288 	 1.798540 	 1.809187 
H 	 3.713196 	 1.354218 	 0.819530 
H 	 3.171242 	 -6.682242 	 -2.113762 
H 	 2.293526 	 -6.434481 	 -3.423274 
H 	 -1.101019 	 0.153235 	 6.586498 
H 	 -1.274031 	 0.290167 	 5.133725 
H 	 -1.950722 	 -5.397586 	 -5.604321 
O 	 7.203927 	 -0.128263 	 5.155909 
O 	 4.097743 	 -3.838930 	 -4.932459 
O 	 -6.024052 	 -0.966739 	 -2.884443 
O 	 5.242488 	 -0.030741 	 3.255244 
O 	 -6.738511 	 -1.870889 	 0.087670 
O 	 6.173414 	 -2.490917 	 -1.894061 
O 	 -4.374620 	 -4.096858 	 3.568926 
O 	 -6.740044 	 6.182427 	 -1.959108 
O 	 -4.504220 	 -2.787742 	 -6.600638 
O 	 -5.443027 	 3.691876 	 -0.959549 
O 	 2.792718 	 0.724338 	 4.580014 
O 	 -4.059216 	 6.950467 	 -1.264322 
O 	 1.531543 	 4.164076 	 -1.182928 
O 	 6.243310 	 6.616522 	 0.213268 
O 	 -0.674739 	 0.063753 	 -6.106112 
O 	 6.163463 	 0.188883 	 -1.752447 
O 	 2.092796 	 -2.830547 	 -2.550382 
O 	 -6.207149 	 -5.674724 	 -5.782036 
O 	 -3.375093 	 -6.509065 	 6.366479 
O 	 -0.101307 	 7.518762 	 -7.286440 
O 	 -2.813131 	 2.063577 	 6.727931 
O 	 1.095201 	 4.816196 	 -7.270701 
O 	 6.486896 	 -3.063205 	 4.813203 
O 	 -6.062621 	 1.093911 	 3.157512 
O 	 1.033893 	 -4.247413 	 1.719967 
O 	 0.049401 	 0.694958 	 -2.322093 
O 	 -2.693293 	 3.233394 	 -2.958426 
O 	 -0.064111 	 2.344950 	 5.985701 
O 	 7.196752 	 3.733391 	 -5.219260 
O 	 6.254145 	 -6.001089 	 7.473866 
O 	 3.145725 	 -0.477450 	 -3.414152 
O 	 6.605200 	 -5.516183 	 -0.690257 
O 	 5.326505 	 -1.249757 	 7.327242 
O 	 -7.388612 	 6.637504 	 -4.708127 
O 	 -7.277382 	 -3.902759 	 2.236719 
O 	 3.635745 	 -3.324917 	 4.384664 
O 	 -6.264236 	 -4.567119 	 5.998880 
O 	 0.263438 	 -3.251788 	 -6.723172 
O 	 0.062604 	 -6.270115 	 -1.364218 
O 	 4.037051 	 5.921236 	 -3.885603 
O 	 -1.039786 	 2.927874 	 -5.192854 
O 	 3.242886 	 -6.767548 	 0.140787 
O 	 -5.416973 	 4.507948 	 1.659911 
O 	 5.706379 	 -0.224070 	 -4.701499 
O 	 -0.378326 	 6.414419 	 -3.211084 
O 	 1.329697 	 -1.826119 	 5.655150 
O 	 -5.948780 	 1.792575 	 -4.330959 
O 	 -4.928667 	 4.531181 	 -4.006760 
O 	 -2.046306 	 -5.230623 	 4.680081 
O 	 -5.246001 	 7.037379 	 4.479655 
O 	 -4.230174 	 -1.392028 	 2.923992 
O 	 1.772965 	 3.866530 	 -4.520692 
O 	 3.954950 	 -5.712285 	 6.017265 
O 	 1.273781 	 4.771788 	 4.746486 
O 	 -0.173872 	 -3.964094 	 -4.199009 
O 	 3.680858 	 1.749409 	 -1.761831 
O 	 -7.106553 	 -2.512405 	 -6.529091 
O 	 2.185992 	 1.646457 	 7.493410 
O 	 2.037976 	 -0.756077 	 -6.021986 
O 	 0.894399 	 -6.595671 	 -4.717663 
O 	 -1.416728 	 3.830188 	 1.264965 
O 	 1.128762 	 6.185712 	 0.396541 
O 	 5.225172 	 2.084789 	 -6.518541 
O 	 -2.542155 	 4.461831 	 -6.762529 
O 	 -4.105714 	 0.636467 	 -6.110467 
O 	 -1.745524 	 -6.511653 	 1.738881 
O 	 -1.599020 	 0.758445 	 2.037391 
O 	 -6.977315 	 -7.001973 	 1.811440 
O 	 -6.929875 	 1.147250 	 7.433597 
O 	 -2.513660 	 -2.996588 	 6.527727 
O 	 -3.481444 	 2.211091 	 4.105666 
O 	 6.000262 	 3.871791 	 -2.842945 
O 	 -4.674561 	 -5.933913 	 -3.262181 
O 	 1.902019 	 -1.139483 	 -0.321247 
O 	 -4.448939 	 -4.153998 	 0.440417 
O 	 -3.951717 	 -1.472584 	 -0.466317 
O 	 2.164014 	 -6.159437 	 3.462698 
O 	 3.238277 	 -3.384159 	 7.548999 
O 	 6.872729 	 4.030165 	 2.948168 
O 	 -0.948084 	 -1.859022 	 1.193433 
O 	 -2.314857 	 6.074455 	 5.888419 
O 	 5.757129 	 -5.846726 	 -4.165092 
O 	 -4.249827 	 7.296824 	 1.388067 
O 	 -3.208876 	 0.561602 	 -2.214471 
O 	 -6.158943 	 -4.416483 	 -1.707933 
O 	 4.962110 	 7.396555 	 3.125243 
O 	 1.541556 	 1.700102 	 -0.108059 
O 	 3.497485 	 6.397746 	 5.492660 
O 	 5.026049 	 2.735306 	 5.488863 
O 	 5.116979 	 6.224155 	 -6.949024 
O 	 -0.540885 	 -2.980799 	 3.771154 
O 	 3.788213 	 4.477325 	 3.311012 
O 	 4.057128 	 -3.937982 	 -0.472382 
O 	 -3.786928 	 -1.492098 	 -4.183260 
O 	 7.419445 	 5.706391 	 5.178191 
O 	 4.620053 	 -2.614586 	 1.807650 
O 	 1.025267 	 2.052272 	 3.021916 
O 	 4.313518 	 4.671473 	 -0.209674 
O 	 0.385747 	 6.741958 	 2.960733 
O 	 -3.065109 	 6.397825 	 -4.604448 
O 	 -1.954360 	 5.191380 	 -1.151043 
O 	 -2.629878 	 -3.638261 	 -2.657492 
O 	 -3.837125 	 1.660996 	 0.634412 
O 	 -1.574384 	 -4.345271 	 -0.012965 
O 	 -3.510331 	 4.930139 	 3.872525 
O 	 0.347141 	 -5.351737 	 5.917944 
O 	 -6.947719 	 0.952206 	 0.176002 
O 	 4.300398 	 2.109116 	 1.110889 
O 	 3.199690 	 -6.496296 	 -3.044657 
O 	 -1.127387 	 -0.420415 	 5.790318 
O 	 -2.340891 	 -6.216893 	 -6.008355 
K 	 7.380451 	 -3.454683 	 -4.205657 
