333
conformation = 54
H 	 7.155998 	 -1.005717 	 5.202976 
H 	 7.230944 	 0.231556 	 6.041887 
H 	 3.645106 	 -3.962722 	 -4.145653 
H 	 4.807907 	 -4.496900 	 -4.997154 
H 	 -6.026503 	 -1.057145 	 -2.233153 
H 	 -6.050532 	 0.081790 	 -3.336004 
H 	 4.355930 	 0.178406 	 3.605061 
H 	 5.898612 	 -0.198423 	 3.725115 
H 	 -6.880021 	 -2.306042 	 0.894751 
H 	 -7.360393 	 -2.201509 	 -0.581504 
H 	 5.419008 	 -2.926139 	 -1.571530 
H 	 6.069485 	 -1.435000 	 -1.921114 
H 	 -3.520680 	 -4.515751 	 4.022937 
H 	 -4.338753 	 -3.236102 	 3.507479 
H 	 -7.229614 	 6.454538 	 -1.224848 
H 	 -5.749521 	 6.351380 	 -1.696133 
H 	 -3.819909 	 -2.796541 	 -7.328796 
H 	 -4.163038 	 -2.318515 	 -5.786354 
H 	 -5.781763 	 4.630096 	 -1.605216 
H 	 -4.573354 	 3.716245 	 -1.462289 
H 	 2.263373 	 -0.242722 	 4.831083 
H 	 2.205616 	 1.116834 	 3.939025 
H 	 -3.190130 	 6.443531 	 -1.505149 
H 	 -4.027916 	 -7.193860 	 -2.003318 
H 	 1.343967 	 4.317095 	 -2.226062 
H 	 1.266776 	 4.993865 	 -0.760691 
H 	 5.770037 	 6.108565 	 0.364350 
H 	 6.933223 	 7.087986 	 0.765520 
H 	 0.200565 	 -0.012042 	 -6.222198 
H 	 -0.760008 	 1.187159 	 -6.082382 
H 	 5.319984 	 0.810526 	 -1.402273 
H 	 6.892586 	 0.763432 	 -1.294674 
H 	 2.535584 	 -2.061307 	 -3.012079 
H 	 1.327432 	 -2.971716 	 -3.051227 
H 	 -5.297813 	 -5.354554 	 -5.356092 
H 	 -6.108254 	 -6.528067 	 -5.727491 
H 	 -2.865707 	 -5.936063 	 5.799874 
H 	 -4.275953 	 -6.590734 	 6.089113 
H 	 -0.700132 	 -6.946836 	 -6.918317 
H 	 0.459273 	 -6.710035 	 6.881521 
H 	 -3.249763 	 2.065962 	 5.947086 
H 	 -3.277432 	 2.788138 	 7.269984 
H 	 0.728952 	 5.770374 	 -7.225770 
H 	 0.454251 	 4.183769 	 7.424841 
H 	 6.951076 	 -3.810717 	 5.405420 
H 	 5.638918 	 -3.114935 	 4.906885 
H 	 -6.525832 	 1.240930 	 2.434887 
H 	 -6.573347 	 0.721880 	 3.978303 
H 	 0.588408 	 -4.561957 	 0.772216 
H 	 0.564816 	 -3.821754 	 2.174561 
H 	 -0.042206 	 -0.142746 	 -1.891246 
H 	 -0.917410 	 0.866074 	 -2.696928 
H 	 -1.908935 	 3.289054 	 -3.683537 
H 	 -2.834985 	 2.430007 	 -2.740215 
H 	 0.556088 	 1.987286 	 6.573920 
H 	 -1.011211 	 2.266839 	 6.338527 
H 	 6.374563 	 3.460824 	 -5.824171 
H 	 6.779703 	 3.598666 	 -4.325995 
H 	 7.109369 	 -6.028118 	 6.751671 
H 	 6.541662 	 -5.305750 	 -6.986768 
H 	 3.297642 	 0.402834 	 -2.853218 
H 	 4.220943 	 -0.330115 	 -3.834949 
H 	 6.305716 	 -6.349090 	 -0.375703 
H 	 5.947466 	 -4.883333 	 -0.451551 
H 	 5.304220 	 -1.307572 	 -6.671046 
H 	 4.484414 	 -2.054302 	 7.128760 
H 	 6.998828 	 5.892007 	 -5.275088 
H 	 -7.179477 	 6.302728 	 -3.964491 
H 	 -6.217117 	 -4.050359 	 2.509856 
H 	 7.354548 	 -3.409875 	 2.910746 
H 	 3.760505 	 -4.084545 	 4.901292 
H 	 2.948019 	 -2.703942 	 4.689640 
H 	 -5.684788 	 -4.766665 	 6.667145 
H 	 -5.678546 	 -4.340811 	 5.132074 
H 	 -0.495543 	 -2.855193 	 -7.157764 
H 	 0.539944 	 -3.909773 	 7.405885 
H 	 0.413936 	 -6.881417 	 -0.880025 
H 	 -0.185530 	 -6.584397 	 -2.236096 
H 	 3.667413 	 6.467666 	 -3.331342 
H 	 3.235862 	 5.145497 	 -4.097659 
H 	 -1.066939 	 3.588605 	 -5.787717 
H 	 0.033254 	 3.213870 	 -4.800102 
H 	 3.562232 	 -5.918787 	 0.014527 
H 	 4.249698 	 -7.292025 	 0.289885 
H 	 -5.397816 	 3.901882 	 0.769412 
H 	 -4.880495 	 3.642839 	 2.122083 
H 	 6.224294 	 0.073702 	 -3.754176 
H 	 5.869761 	 0.782823 	 -5.158522 
H 	 -0.784826 	 6.132981 	 -2.520696 
H 	 -1.359618 	 6.476625 	 -3.953466 
H 	 1.669806 	 -2.378432 	 6.267490 
H 	 0.577536 	 -1.266206 	 5.699280 
H 	 -6.391742 	 2.254063 	 -4.997491 
H 	 -5.159926 	 1.567342 	 -4.690747 
H 	 -4.258677 	 3.847033 	 -3.867351 
H 	 -5.600990 	 4.240437 	 -4.445973 
H 	 -0.458990 	 -5.341440 	 5.301323 
H 	 -2.001929 	 -5.623993 	 3.768262 
H 	 -6.038753 	 6.881366 	 4.769415 
H 	 -5.210011 	 -7.123271 	 3.780718 
H 	 -3.442859 	 -0.694876 	 2.772625 
H 	 -4.928704 	 -0.565360 	 2.680294 
H 	 2.448371 	 3.179914 	 -4.506626 
H 	 1.919403 	 4.235866 	 -5.583990 
H 	 3.664010 	 -6.731475 	 5.786492 
H 	 4.708862 	 -5.856611 	 6.445697 
H 	 2.106646 	 5.265076 	 5.175470 
H 	 1.047324 	 4.092647 	 5.200972 
H 	 0.466874 	 -4.842316 	 -4.304852 
H 	 0.048005 	 -3.536088 	 -4.972489 
H 	 4.020759 	 2.627900 	 -2.152780 
H 	 3.119832 	 1.713108 	 -1.247156 
H 	 7.136335 	 -1.830165 	 -7.119263 
H 	 -6.236675 	 -2.471785 	 -6.841377 
H 	 2.261415 	 0.828949 	 -7.001267 
H 	 2.564895 	 1.614398 	 6.627838 
H 	 2.090625 	 -1.629697 	 -6.330873 
H 	 2.371068 	 -0.596623 	 -5.194770 
H 	 0.828724 	 -6.868035 	 -5.636250 
H 	 0.593409 	 -7.087568 	 -4.137783 
H 	 -1.740897 	 4.407042 	 2.077761 
H 	 -1.940756 	 3.225990 	 1.249832 
H 	 1.960003 	 6.871726 	 0.388493 
H 	 0.946118 	 6.241646 	 1.298687 
H 	 5.238681 	 2.302977 	 7.485015 
H 	 4.282178 	 2.121528 	 -6.243983 
H 	 -2.953531 	 5.135320 	 -6.045023 
H 	 -2.627333 	 5.145933 	 7.303739 
H 	 -3.471114 	 0.690255 	 -6.759075 
H 	 -3.519973 	 -0.055600 	 -5.404775 
H 	 -2.548198 	 -6.879131 	 1.753664 
H 	 -1.095443 	 -7.303933 	 1.985105 
H 	 -0.929868 	 1.243772 	 2.497411 
H 	 -1.252102 	 -0.178514 	 1.687949 
H 	 -6.091939 	 -6.996233 	 1.585840 
H 	 -7.177601 	 -5.795560 	 1.682966 
H 	 -7.171087 	 1.689054 	 -6.726984 
H 	 -6.010277 	 0.771195 	 -7.043709 
H 	 -2.080621 	 -3.677962 	 5.799927 
H 	 -2.149236 	 -2.215750 	 5.873608 
H 	 -4.245451 	 1.858292 	 3.735146 
H 	 -3.432753 	 3.223062 	 3.987677 
H 	 5.387651 	 4.749880 	 -3.095261 
H 	 6.621690 	 4.231187 	 -2.347756 
H 	 -3.641119 	 -5.493734 	 -3.152962 
H 	 -5.058371 	 -5.387309 	 -2.632968 
H 	 1.815181 	 -1.782044 	 -0.927241 
H 	 1.348227 	 -1.248698 	 0.448157 
H 	 -3.482771 	 -4.152391 	 0.208020 
H 	 -4.487032 	 -3.988442 	 1.378345 
H 	 -3.396391 	 -1.509769 	 0.330190 
H 	 -4.878010 	 -1.598046 	 -0.231211 
H 	 3.208451 	 -6.399997 	 3.131513 
H 	 1.922736 	 -5.667801 	 2.537539 
H 	 3.218376 	 -4.056151 	 6.967926 
H 	 3.454197 	 -3.602953 	 -6.389156 
H 	 -7.239770 	 3.921005 	 2.575236 
H 	 6.785321 	 3.320958 	 3.509597 
H 	 -0.926174 	 -2.330119 	 1.915889 
H 	 -1.233221 	 -2.354357 	 0.391321 
H 	 -2.696312 	 6.970100 	 6.075080 
H 	 -1.236618 	 6.393616 	 6.060654 
H 	 6.394772 	 -6.773653 	 -4.551545 
H 	 5.159835 	 -6.256576 	 -3.790360 
H 	 -4.133295 	 7.417746 	 0.238699 
H 	 -4.443970 	 6.317761 	 1.364477 
H 	 -3.021038 	 0.119866 	 -3.077781 
H 	 -3.731790 	 -0.089333 	 -1.711475 
H 	 -6.835989 	 -4.634418 	 -1.240996 
H 	 -5.350926 	 -3.998314 	 -1.201034 
H 	 5.941001 	 -7.161026 	 2.735409 
H 	 4.971430 	 6.566960 	 2.916865 
H 	 1.397459 	 2.727276 	 -0.477614 
H 	 1.088089 	 1.228480 	 -0.460494 
H 	 4.009871 	 6.125635 	 6.464097 
H 	 4.434314 	 6.632911 	 4.998184 
H 	 4.618737 	 3.674323 	 4.818531 
H 	 4.810832 	 2.183949 	 4.851998 
H 	 5.409324 	 7.131883 	 -7.037183 
H 	 4.402879 	 6.146153 	 -6.255463 
H 	 0.173779 	 -2.676994 	 4.319835 
H 	 -0.818588 	 -3.854867 	 4.095348 
H 	 2.773422 	 4.812418 	 3.555409 
H 	 3.888017 	 3.986895 	 2.796392 
H 	 3.497612 	 -3.528552 	 -0.997091 
H 	 4.231432 	 -3.209101 	 0.344530 
H 	 -3.309748 	 -2.175157 	 -3.652059 
H 	 -4.347216 	 -1.240444 	 -4.020075 
H 	 7.205322 	 5.058516 	 5.880165 
H 	 7.270657 	 5.333203 	 4.296637 
H 	 4.190986 	 -3.070853 	 2.417543 
H 	 4.775611 	 -1.588133 	 2.111125 
H 	 1.027843 	 2.152378 	 1.868002 
H 	 0.856720 	 3.054969 	 3.034905 
H 	 4.429831 	 3.900938 	 0.294421 
H 	 3.533123 	 4.748041 	 -0.613022 
H 	 1.097137 	 7.400926 	 3.071155 
H 	 0.706920 	 5.960499 	 3.588503 
H 	 -3.917966 	 5.943679 	 -4.370305 
H 	 -3.241237 	 7.316396 	 -5.064484 
H 	 -2.092046 	 4.428753 	 -1.713921 
H 	 -1.707246 	 4.835720 	 -0.234385 
H 	 -2.545740 	 -3.158068 	 -1.693877 
H 	 -1.706079 	 -3.712798 	 -2.939710 
H 	 -3.007740 	 1.250578 	 1.290146 
H 	 -3.493878 	 1.747759 	 -0.140165 
H 	 -1.701249 	 -5.123178 	 0.688938 
H 	 -1.215898 	 -4.961480 	 -0.721239 
H 	 -4.197403 	 5.426223 	 3.842268 
H 	 -2.836814 	 5.125921 	 4.573299 
H 	 1.105614 	 -5.149446 	 4.895412 
H 	 -2.860013 	 -6.102173 	 -6.812058 
H 	 -6.085886 	 1.535231 	 0.075238 
H 	 -6.555187 	 -0.001691 	 0.110724 
H 	 4.644602 	 1.200120 	 1.650589 
H 	 3.494181 	 1.872376 	 0.772608 
H 	 2.608709 	 -6.382686 	 -2.323007 
H 	 2.637273 	 -6.391001 	 -3.949291 
H 	 -1.129523 	 0.030632 	 6.656544 
H 	 -1.051122 	 0.445675 	 5.080782 
H 	 -2.368620 	 -5.195745 	 -5.579279 
O 	 7.244065 	 -0.019832 	 5.101040 
O 	 4.206679 	 -3.717556 	 -4.874727 
O 	 -5.872954 	 -0.855566 	 -3.193996 
O 	 5.165591 	 -0.046986 	 3.053832 
O 	 -6.790824 	 -1.724999 	 0.100136 
O 	 6.196224 	 -2.403787 	 -1.942869 
O 	 -4.425789 	 -4.218324 	 3.578095 
O 	 -6.688124 	 6.144192 	 -1.975747 
O 	 -4.513170 	 -2.757330 	 -6.641283 
O 	 -5.475045 	 3.857956 	 -1.108893 
O 	 2.756211 	 0.572081 	 4.561185 
O 	 -4.024855 	 6.968560 	 -1.370870 
O 	 1.679038 	 4.214641 	 -1.285097 
O 	 6.293869 	 6.859471 	 0.043450 
O 	 -0.756532 	 0.230755 	 -6.347508 
O 	 6.130079 	 0.333546 	 -1.775528 
O 	 2.142006 	 -2.860623 	 -2.532709 
O 	 -6.113479 	 -5.549888 	 -5.895385 
O 	 -3.329691 	 -6.517665 	 6.479614 
O 	 0.140297 	 7.560608 	 -7.252852 
O 	 -2.902315 	 2.001709 	 6.854969 
O 	 1.124805 	 4.865780 	 -7.124916 
O 	 6.606904 	 -3.011628 	 4.831508 
O 	 -5.978330 	 1.054431 	 3.235661 
O 	 1.192072 	 -4.232748 	 1.478271 
O 	 -0.014747 	 0.674030 	 -2.380138 
O 	 -2.630819 	 3.320318 	 -3.047592 
O 	 -0.120916 	 2.288817 	 5.942722 
O 	 7.177408 	 3.631635 	 -5.285993 
O 	 6.234702 	 -5.897152 	 7.188901 
O 	 3.321628 	 -0.422989 	 -3.468021 
O 	 6.625972 	 -5.474567 	 -0.705400 
O 	 5.129067 	 -1.328593 	 7.273177 
O 	 -7.430142 	 6.635022 	 -4.833796 
O 	 -7.078336 	 -3.767942 	 2.146134 
O 	 3.681768 	 -3.238057 	 4.363599 
O 	 -6.213841 	 -4.480007 	 5.933704 
O 	 0.456080 	 -3.077192 	 -6.946528 
O 	 -0.000297 	 -6.176958 	 -1.371126 
O 	 3.974659 	 5.781315 	 -3.947784 
O 	 -0.805739 	 2.853131 	 -5.131996 
O 	 3.355930 	 -6.908134 	 0.121451 
O 	 -5.384472 	 4.347033 	 1.622577 
O 	 5.802069 	 -0.051900 	 -4.642206 
O 	 -0.523125 	 6.524799 	 -3.370203 
O 	 1.401771 	 -1.812892 	 5.500857 
O 	 -5.932574 	 1.875438 	 -4.238719 
O 	 -4.798250 	 4.626408 	 -4.007992 
O 	 -2.065293 	 -5.190986 	 4.653380 
O 	 -5.156449 	 7.088971 	 4.484927 
O 	 -4.250370 	 -1.245862 	 2.804552 
O 	 1.856755 	 3.925088 	 -4.632639 
O 	 3.865288 	 -5.751805 	 5.945180 
O 	 1.414754 	 4.821878 	 4.708581 
O 	 -0.044580 	 -4.012728 	 -4.150938 
O 	 3.840771 	 1.687222 	 -1.850557 
O 	 -7.157986 	 -2.332555 	 -6.493785 
O 	 2.071694 	 1.680165 	 7.455313 
O 	 2.066241 	 -0.675663 	 -6.098447 
O 	 1.049537 	 -6.489734 	 -4.736684 
O 	 -1.304172 	 3.975968 	 1.315165 
O 	 1.139923 	 6.260432 	 0.339137 
O 	 5.217952 	 2.030104 	 -6.450037 
O 	 -2.498071 	 4.645214 	 -6.755777 
O 	 -4.030688 	 0.564125 	 -5.945182 
O 	 -1.622157 	 -6.540707 	 1.717419 
O 	 -1.547621 	 0.737332 	 1.942206 
O 	 -7.003896 	 -6.735345 	 1.854125 
O 	 -6.833134 	 1.149698 	 7.475551 
O 	 -2.317914 	 -2.978418 	 6.435027 
O 	 -3.366094 	 2.220713 	 4.005319 
O 	 5.944020 	 3.914960 	 -2.923523 
O 	 -4.487884 	 -5.933379 	 -3.253874 
O 	 1.811198 	 -1.021803 	 -0.349416 
O 	 -4.417048 	 -4.059834 	 0.426487 
O 	 -3.919944 	 -1.494391 	 -0.497482 
O 	 2.218832 	 -6.199641 	 3.296529 
O 	 3.279968 	 -3.255843 	 -7.341768 
O 	 6.768029 	 4.079704 	 2.954983 
O 	 -0.987616 	 -1.748911 	 1.123012 
O 	 -2.149791 	 6.173947 	 5.827722 
O 	 5.849414 	 -5.959819 	 -4.430051 
O 	 -4.331059 	 7.298334 	 1.229009 
O 	 -3.160547 	 0.512278 	 -2.233856 
O 	 -6.040398 	 -4.361706 	 -1.760067 
O 	 5.103407 	 7.509124 	 3.142725 
O 	 1.681052 	 1.867895 	 -0.003182 
O 	 3.680472 	 6.454895 	 5.589221 
O 	 4.933345 	 2.965145 	 5.410320 
O 	 5.066028 	 6.218377 	 -7.011180 
O 	 -0.471256 	 -3.025258 	 3.698161 
O 	 3.715220 	 4.774559 	 3.358541 
O 	 4.212300 	 -3.866379 	 -0.417685 
O 	 -3.538822 	 -1.568752 	 -4.378015 
O 	 -7.415544 	 5.714137 	 5.209712 
O 	 4.581607 	 -2.493124 	 1.744435 
O 	 0.920288 	 2.116927 	 2.863730 
O 	 4.410269 	 4.771479 	 -0.195888 
O 	 0.462784 	 6.647364 	 2.913736 
O 	 -3.092385 	 6.382714 	 -4.657709 
O 	 -1.777249 	 5.211685 	 -1.153318 
O 	 -2.637449 	 -3.577260 	 -2.583117 
O 	 -3.772196 	 1.635946 	 0.807140 
O 	 -1.573648 	 -4.417015 	 0.012950 
O 	 -3.347570 	 4.877957 	 3.749705 
O 	 0.482299 	 -5.259654 	 5.648819 
O 	 -6.849371 	 0.948673 	 0.114284 
O 	 4.365835 	 2.025692 	 1.189909 
O 	 3.209355 	 -6.449088 	 -3.103922 
O 	 -0.995477 	 -0.304918 	 5.680845 
O 	 -2.441761 	 -6.126783 	 -5.898000 
K 	 7.383560 	 -3.453909 	 -4.249953 
