333
conformation = 15
H 	 6.896608 	 -0.997109 	 5.450302 
H 	 7.335211 	 0.284005 	 6.046862 
H 	 3.442294 	 -3.695713 	 -4.235986 
H 	 4.539508 	 -4.745682 	 -4.820785 
H 	 -5.728474 	 -0.803558 	 -1.941015 
H 	 -6.132956 	 -0.015302 	 -3.197219 
H 	 4.483851 	 -0.034316 	 3.831243 
H 	 6.014026 	 0.111227 	 3.848451 
H 	 -6.945424 	 -2.464007 	 0.851976 
H 	 7.437142 	 -2.116102 	 -0.518415 
H 	 5.535533 	 -2.888766 	 -1.310933 
H 	 6.026271 	 -1.500200 	 -1.784087 
H 	 -3.555941 	 -4.580365 	 3.798290 
H 	 -4.035928 	 -3.171032 	 3.508040 
H 	 -7.397057 	 6.267407 	 -1.207615 
H 	 -5.901750 	 6.658389 	 -1.699885 
H 	 -3.814286 	 -2.775070 	 -7.285946 
H 	 -4.300728 	 -2.043193 	 -5.975820 
H 	 -5.869672 	 4.319959 	 -1.589776 
H 	 -4.578462 	 3.475413 	 -1.319579 
H 	 2.340489 	 -0.035241 	 5.029643 
H 	 2.041027 	 1.178891 	 4.114658 
H 	 -3.381928 	 6.250645 	 -1.254390 
H 	 -4.006412 	 -7.352488 	 -2.062696 
H 	 1.301426 	 4.383837 	 -2.112964 
H 	 1.173820 	 4.880839 	 -0.607519 
H 	 5.631278 	 5.821587 	 0.272744 
H 	 6.666291 	 6.930712 	 1.051554 
H 	 0.285332 	 -0.058705 	 -5.910475 
H 	 -0.865487 	 0.888675 	 -5.652682 
H 	 5.298012 	 0.664440 	 -1.709879 
H 	 6.601299 	 0.542766 	 -0.954437 
H 	 2.258848 	 -1.999570 	 -3.016923 
H 	 1.332107 	 -3.243607 	 -3.122087 
H 	 -5.508080 	 -5.758688 	 -5.126972 
H 	 -6.721250 	 -6.477863 	 -5.610362 
H 	 -2.857588 	 -5.922267 	 5.584729 
H 	 -4.208979 	 -6.745592 	 5.929231 
H 	 -0.990205 	 -7.109235 	 -6.944239 
H 	 0.131834 	 -6.689942 	 6.981545 
H 	 -3.223497 	 2.277779 	 5.831811 
H 	 -2.885978 	 2.903564 	 7.260166 
H 	 0.450706 	 5.522814 	 -7.222383 
H 	 0.632323 	 4.013838 	 7.421968 
H 	 6.862918 	 -3.482673 	 5.627134 
H 	 5.538419 	 -3.073693 	 4.930644 
H 	 -6.457009 	 0.816712 	 2.328253 
H 	 -6.567463 	 0.651993 	 3.882883 
H 	 0.762826 	 -3.985242 	 0.808786 
H 	 0.335031 	 -3.872303 	 2.243720 
H 	 0.240362 	 -0.253722 	 -2.076669 
H 	 -0.896318 	 0.750081 	 -2.629370 
H 	 -2.056227 	 3.092292 	 -3.766275 
H 	 -2.915647 	 2.267344 	 -2.757392 
H 	 0.339401 	 1.794053 	 6.705708 
H 	 -1.063334 	 2.262456 	 6.171761 
H 	 6.651630 	 3.449577 	 -5.997705 
H 	 6.589398 	 3.875934 	 -4.474183 
H 	 6.846748 	 -5.843227 	 6.676601 
H 	 6.491688 	 -5.318402 	 -6.794555 
H 	 3.272940 	 0.352105 	 -2.954030 
H 	 4.094814 	 -0.601819 	 -3.729687 
H 	 6.425322 	 -6.453141 	 -0.869735 
H 	 5.699475 	 -5.104118 	 -0.718632 
H 	 5.021674 	 -1.053724 	 -6.659330 
H 	 4.716352 	 -1.998647 	 7.113542 
H 	 7.347044 	 5.745009 	 -5.107900 
H 	 -7.061427 	 6.530699 	 -3.742666 
H 	 -6.522348 	 -4.000307 	 2.905035 
H 	 6.908308 	 -3.677606 	 2.872757 
H 	 3.456156 	 -4.312508 	 4.606370 
H 	 2.816504 	 -2.815721 	 4.656396 
H 	 -5.916117 	 -4.564419 	 6.886285 
H 	 -5.579755 	 -4.238919 	 5.378593 
H 	 -0.515946 	 -3.242409 	 -7.305756 
H 	 0.836107 	 -3.885613 	 -7.219410 
H 	 -0.414021 	 -6.591190 	 -0.514600 
H 	 -0.311446 	 -6.899875 	 -1.990385 
H 	 3.989912 	 6.899504 	 -3.821797 
H 	 3.111902 	 5.662213 	 -3.890536 
H 	 -1.412292 	 3.539337 	 -5.851536 
H 	 -0.138269 	 3.261223 	 -4.903096 
H 	 3.410478 	 -5.829141 	 0.280526 
H 	 4.096248 	 -7.214914 	 0.494727 
H 	 -5.473335 	 4.557611 	 0.642671 
H 	 -5.008263 	 3.599434 	 1.738203 
H 	 6.131553 	 0.204324 	 -3.943500 
H 	 5.611451 	 0.463858 	 -5.386439 
H 	 -0.446104 	 5.872595 	 -2.394062 
H 	 -1.304581 	 6.314796 	 -3.523656 
H 	 1.649092 	 -2.005500 	 6.596433 
H 	 0.499990 	 -1.320981 	 5.619167 
H 	 -6.805926 	 2.292746 	 -4.444300 
H 	 -5.551747 	 1.661434 	 -5.260537 
H 	 -4.242709 	 3.894524 	 -3.641675 
H 	 -5.523138 	 3.890708 	 -4.421500 
H 	 -0.509428 	 -5.319881 	 5.419444 
H 	 -1.869744 	 -5.735878 	 3.862182 
H 	 -5.858758 	 6.310063 	 4.877222 
H 	 -5.910440 	 -7.307440 	 3.982018 
H 	 -3.516545 	 -0.740361 	 2.810325 
H 	 -4.994467 	 -0.846365 	 3.217874 
H 	 2.217012 	 3.129950 	 -4.875964 
H 	 1.468545 	 4.494362 	 -5.215599 
H 	 3.463747 	 -6.596807 	 5.923595 
H 	 4.724424 	 -5.973645 	 6.534600 
H 	 2.020089 	 5.309404 	 5.228429 
H 	 0.775654 	 4.238063 	 5.387307 
H 	 0.031639 	 -4.937795 	 -4.286452 
H 	 -0.075880 	 -3.578039 	 -5.128554 
H 	 4.286853 	 2.517816 	 -1.584763 
H 	 2.967660 	 1.749478 	 -1.012451 
H 	 7.246667 	 -1.919799 	 -7.149955 
H 	 -6.154042 	 -2.572200 	 -6.753340 
H 	 2.157508 	 0.654230 	 -7.328445 
H 	 2.520508 	 1.791180 	 6.575532 
H 	 1.646736 	 -1.669249 	 -6.053326 
H 	 2.352133 	 -0.566211 	 -5.071764 
H 	 0.910877 	 -6.756739 	 -5.687887 
H 	 0.392030 	 7.513130 	 -4.383187 
H 	 -1.958421 	 4.322795 	 1.950557 
H 	 -1.491959 	 2.855646 	 1.341526 
H 	 1.789067 	 6.883884 	 0.389350 
H 	 0.893751 	 6.179316 	 1.385038 
H 	 5.614589 	 1.727337 	 -7.326786 
H 	 4.237489 	 2.082875 	 -6.542397 
H 	 -2.767942 	 5.138260 	 -6.018809 
H 	 -2.272234 	 5.071555 	 7.401080 
H 	 -3.575352 	 1.213970 	 -6.718130 
H 	 -3.491511 	 0.113444 	 -5.607518 
H 	 -2.500354 	 -7.105684 	 1.492997 
H 	 -1.016033 	 -7.132366 	 2.041041 
H 	 -0.754930 	 1.174316 	 2.309726 
H 	 -1.385184 	 0.200469 	 1.248614 
H 	 -6.040805 	 -7.115160 	 1.514414 
H 	 -7.311316 	 -6.125279 	 1.552404 
H 	 -7.244152 	 1.611633 	 -6.684530 
H 	 -6.343968 	 0.452627 	 -7.107628 
H 	 -2.773451 	 -3.665173 	 5.852184 
H 	 -2.155082 	 -2.193258 	 6.051480 
H 	 -4.251291 	 1.760500 	 3.780727 
H 	 -3.608980 	 3.187920 	 4.064035 
H 	 5.325097 	 4.563477 	 -2.872795 
H 	 6.607798 	 4.347071 	 -2.252278 
H 	 -4.033895 	 -5.172470 	 -3.281934 
H 	 -5.298771 	 -5.550128 	 -2.629867 
H 	 1.885973 	 -1.929561 	 -0.909217 
H 	 1.618862 	 -1.416142 	 0.588121 
H 	 -3.475137 	 -4.382975 	 0.385509 
H 	 -4.623617 	 -4.138805 	 1.387200 
H 	 -3.393780 	 -1.856869 	 0.244489 
H 	 -4.642983 	 -2.156292 	 -0.406612 
H 	 3.048308 	 -6.560493 	 3.355891 
H 	 2.064550 	 -5.467495 	 2.763106 
H 	 3.399614 	 -4.239568 	 7.134972 
H 	 3.458049 	 -3.464948 	 -6.395332 
H 	 -7.237322 	 4.139424 	 2.308966 
H 	 7.137146 	 3.219420 	 3.411687 
H 	 -0.978766 	 -2.026392 	 2.134068 
H 	 -0.956427 	 -2.750338 	 0.835870 
H 	 -2.682759 	 7.028001 	 6.183681 
H 	 -1.374468 	 6.265702 	 5.713973 
H 	 6.261871 	 -6.642657 	 -4.448788 
H 	 5.268425 	 -6.023312 	 -3.317200 
H 	 -4.331867 	 7.163202 	 0.436700 
H 	 -4.380700 	 6.400780 	 1.723095 
H 	 -3.431680 	 -0.257198 	 -2.802530 
H 	 -3.004806 	 0.135208 	 -1.345158 
H 	 -6.941414 	 -5.005877 	 -1.606250 
H 	 -5.628156 	 -4.585665 	 -0.845427 
H 	 5.830497 	 -7.319340 	 3.451978 
H 	 5.020017 	 6.435135 	 2.945672 
H 	 1.241564 	 2.528804 	 -0.521352 
H 	 1.059072 	 0.937158 	 -0.529629 
H 	 4.186962 	 6.364644 	 6.209224 
H 	 4.124763 	 6.534854 	 4.735060 
H 	 4.520321 	 3.263563 	 4.828900 
H 	 4.664801 	 1.851449 	 5.467592 
H 	 5.754847 	 6.970550 	 -6.977509 
H 	 4.870677 	 6.281605 	 -5.982978 
H 	 0.229840 	 -2.913430 	 4.411611 
H 	 -1.197622 	 -3.582599 	 4.244505 
H 	 2.835845 	 4.211722 	 3.471741 
H 	 4.054413 	 4.218149 	 2.432405 
H 	 3.306704 	 -3.666752 	 -1.025427 
H 	 4.086374 	 -3.316609 	 0.374475 
H 	 -3.326429 	 -2.344309 	 -3.968652 
H 	 -4.749470 	 -1.564076 	 -3.793955 
H 	 -7.413131 	 4.985038 	 5.803006 
H 	 7.062956 	 5.268310 	 4.403477 
H 	 4.280922 	 -2.710849 	 2.720932 
H 	 4.848597 	 -1.634904 	 1.819501 
H 	 1.458104 	 2.413988 	 2.252778 
H 	 0.673094 	 2.826916 	 3.458711 
H 	 4.489854 	 3.784120 	 0.161606 
H 	 3.382042 	 4.600558 	 -0.544349 
H 	 1.065683 	 7.423428 	 3.211278 
H 	 0.433605 	 5.987242 	 3.597771 
H 	 -3.924045 	 6.042664 	 -4.243470 
H 	 -3.122648 	 7.309474 	 -4.914877 
H 	 -2.176247 	 4.445174 	 -1.731568 
H 	 -1.656654 	 4.778992 	 -0.292564 
H 	 -2.622294 	 -3.544235 	 -1.676097 
H 	 -1.702189 	 -3.704876 	 -2.846264 
H 	 -3.135204 	 1.372313 	 1.313231 
H 	 -3.405834 	 1.504831 	 -0.234767 
H 	 -1.499453 	 -5.042202 	 0.724128 
H 	 -1.139332 	 -4.755387 	 -0.805267 
H 	 -4.134495 	 5.532283 	 3.483875 
H 	 -2.987582 	 5.475552 	 4.504510 
H 	 1.084017 	 -5.562833 	 5.285663 
H 	 -2.905350 	 -6.009057 	 -6.765013 
H 	 -6.065936 	 1.327823 	 -0.053419 
H 	 -6.849193 	 -0.030416 	 0.221635 
H 	 4.912139 	 1.788863 	 1.807565 
H 	 3.703493 	 1.361408 	 0.814722 
H 	 3.168505 	 -6.674988 	 -2.120716 
H 	 2.308301 	 -6.438499 	 -3.428124 
H 	 -1.097841 	 0.146296 	 6.576190 
H 	 -1.272141 	 0.290325 	 5.121130 
H 	 -1.954901 	 -5.396611 	 -5.600085 
O 	 7.203123 	 -0.126597 	 5.155644 
O 	 4.098634 	 -3.837620 	 -4.932752 
O 	 -6.020772 	 -0.965534 	 -2.889523 
O 	 5.240465 	 -0.032744 	 3.253800 
O 	 -6.740458 	 -1.868317 	 0.088236 
O 	 6.172300 	 -2.489860 	 -1.894173 
O 	 -4.376105 	 -4.100413 	 3.569327 
O 	 -6.738237 	 6.181198 	 -1.959153 
O 	 -4.504313 	 -2.786761 	 -6.599277 
O 	 -5.444821 	 3.693833 	 -0.960740 
O 	 2.789835 	 0.720180 	 4.579001 
O 	 -4.059645 	 6.949676 	 -1.265064 
O 	 1.533437 	 4.163326 	 -1.184711 
O 	 6.243651 	 6.620820 	 0.211772 
O 	 -0.676992 	 0.066027 	 -6.109640 
O 	 6.161385 	 0.190463 	 -1.750947 
O 	 2.092894 	 -2.830692 	 -2.549101 
O 	 -6.206634 	 -5.672192 	 -5.784023 
O 	 -3.374821 	 -6.510239 	 6.369720 
O 	 -0.097411 	 7.518948 	 -7.284164 
O 	 -2.817148 	 2.060506 	 6.732078 
O 	 1.094427 	 4.815714 	 -7.268485 
O 	 6.489177 	 -3.064035 	 4.814965 
O 	 -6.062501 	 1.092608 	 3.159646 
O 	 1.034893 	 -4.247515 	 1.716247 
O 	 0.046814 	 0.694363 	 -2.322094 
O 	 -2.693422 	 3.235516 	 -2.959153 
O 	 -0.065743 	 2.340318 	 5.985694 
O 	 7.196361 	 3.729324 	 -5.219180 
O 	 6.250829 	 -6.000032 	 7.469246 
O 	 3.148275 	 -0.476485 	 -3.412613 
O 	 6.607376 	 -5.515987 	 -0.689287 
O 	 5.321467 	 -1.252450 	 7.327005 
O 	 -7.389411 	 6.634937 	 -4.710007 
O 	 -7.274743 	 -3.900358 	 2.234453 
O 	 3.635480 	 -3.325029 	 4.386111 
O 	 -6.263936 	 -4.565515 	 5.997624 
O 	 0.267156 	 -3.249746 	 -6.726059 
O 	 0.061769 	 -6.268951 	 -1.364206 
O 	 4.033678 	 5.917378 	 -3.885128 
O 	 -1.037198 	 2.925598 	 -5.192058 
O 	 3.243789 	 -6.770716 	 0.141427 
O 	 -5.417162 	 4.504277 	 1.661094 
O 	 5.707568 	 -0.221405 	 -4.699435 
O 	 -0.381059 	 6.415977 	 -3.214470 
O 	 1.329679 	 -1.828017 	 5.654392 
O 	 -5.948769 	 1.794310 	 -4.328016 
O 	 -4.926992 	 4.532126 	 -4.006459 
O 	 -2.048037 	 -5.231280 	 4.680808 
O 	 -5.245435 	 7.037878 	 4.481191 
O 	 -4.231756 	 -1.390708 	 2.922326 
O 	 1.775151 	 3.867288 	 -4.521723 
O 	 3.954472 	 -5.714885 	 6.016784 
O 	 1.276253 	 4.772122 	 4.746797 
O 	 -0.172258 	 -3.966379 	 -4.196952 
O 	 3.683200 	 1.746662 	 -1.762527 
O 	 -7.107766 	 -2.509569 	 -6.526934 
O 	 2.181609 	 1.645734 	 7.493453 
O 	 2.038598 	 -0.754583 	 -6.023489 
O 	 0.897216 	 -6.594036 	 -4.717803 
O 	 -1.416031 	 3.831970 	 1.265069 
O 	 1.128891 	 6.185470 	 0.395532 
O 	 5.225226 	 2.084190 	 -6.516826 
O 	 -2.542885 	 4.463632 	 -6.761543 
O 	 -4.104367 	 0.634175 	 -6.105978 
O 	 -1.744642 	 -6.512864 	 1.739586 
O 	 -1.599931 	 0.757864 	 2.035686 
O 	 -6.978671 	 -6.998574 	 1.811338 
O 	 -6.928907 	 1.146005 	 7.434026 
O 	 -2.511502 	 -2.997739 	 6.528115 
O 	 -3.480480 	 2.211401 	 4.104435 
O 	 5.998302 	 3.871084 	 -2.844845 
O 	 -4.673343 	 -5.935677 	 -3.260256 
O 	 1.899633 	 -1.138249 	 -0.321616 
O 	 -4.449017 	 -4.152637 	 0.439860 
O 	 -3.953101 	 -1.473986 	 -0.465740 
O 	 2.164610 	 -6.162506 	 3.460362 
O 	 3.239514 	 -3.382288 	 7.551079 
O 	 6.868900 	 4.031438 	 2.949480 
O 	 -0.949526 	 -1.857675 	 1.192083 
O 	 -2.315281 	 6.075829 	 5.886458 
O 	 5.756468 	 -5.848840 	 -4.169562 
O 	 -4.251324 	 7.295407 	 1.384431 
O 	 -3.210399 	 0.559244 	 -2.213917 
O 	 -6.157245 	 -4.415875 	 -1.707006 
O 	 4.963286 	 7.398316 	 3.126459 
O 	 1.543539 	 1.702328 	 -0.106029 
O 	 3.501737 	 6.398010 	 5.493856 
O 	 5.024042 	 2.739792 	 5.488665 
O 	 5.115081 	 6.223192 	 -6.949011 
O 	 -0.541297 	 -2.982842 	 3.771002 
O 	 3.784748 	 4.482739 	 3.313375 
O 	 4.059339 	 -3.936834 	 -0.470935 
O 	 -3.784205 	 -1.494043 	 -4.187798 
O 	 7.421255 	 5.705868 	 5.180108 
O 	 4.618800 	 -2.612367 	 1.807491 
O 	 1.022771 	 2.051611 	 3.019775 
O 	 4.315004 	 4.673510 	 -0.209315 
O 	 0.386846 	 6.738957 	 2.961083 
O 	 -3.066942 	 6.397912 	 -4.605058 
O 	 -1.952320 	 5.190900 	 -1.149172 
O 	 -2.631080 	 -3.637402 	 -2.653449 
O 	 -3.834854 	 1.658221 	 0.638385 
O 	 -1.575984 	 -4.347031 	 -0.012786 
O 	 -3.509936 	 4.929269 	 3.872416 
O 	 0.348629 	 -5.351244 	 5.912739 
O 	 -6.947318 	 0.951071 	 0.174607 
O 	 4.300977 	 2.106196 	 1.112401 
O 	 3.197357 	 -6.496855 	 -3.046032 
O 	 -1.125529 	 -0.416595 	 5.790175 
O 	 -2.344031 	 -6.216695 	 -6.005610 
K 	 7.379524 	 -3.455921 	 -4.206514 
