333
conformation = 58
H 	 7.133300 	 -1.001612 	 5.113937 
H 	 7.288715 	 0.285705 	 6.032138 
H 	 3.632107 	 -3.960873 	 -4.120750 
H 	 4.779084 	 -4.555931 	 -4.959704 
H 	 -6.058814 	 -1.071277 	 -2.278162 
H 	 -6.032611 	 0.120110 	 -3.388984 
H 	 4.334394 	 0.128280 	 3.550094 
H 	 5.823285 	 -0.213741 	 3.746981 
H 	 -6.909362 	 -2.303586 	 0.906252 
H 	 -7.398557 	 -2.130667 	 -0.587287 
H 	 5.468599 	 -2.892627 	 -1.553896 
H 	 6.075418 	 -1.413193 	 -1.914203 
H 	 -3.534763 	 -4.512898 	 3.959571 
H 	 -4.398832 	 -3.241840 	 3.488884 
H 	 -7.212566 	 6.538815 	 -1.228602 
H 	 -5.751117 	 6.363025 	 -1.684735 
H 	 -3.807564 	 -2.847031 	 -7.283502 
H 	 -4.104330 	 -2.413858 	 -5.778592 
H 	 -5.798583 	 4.643470 	 -1.612059 
H 	 -4.616918 	 3.753617 	 -1.521287 
H 	 2.295621 	 -0.292661 	 4.824378 
H 	 2.206351 	 1.082291 	 3.922067 
H 	 -3.205931 	 6.457104 	 -1.565792 
H 	 -4.006557 	 -7.178077 	 -2.054951 
H 	 1.357668 	 4.298160 	 -2.204518 
H 	 1.242883 	 4.956953 	 -0.771657 
H 	 5.788197 	 6.051551 	 0.305681 
H 	 6.896838 	 7.079354 	 0.812832 
H 	 0.183510 	 -0.012715 	 -6.208821 
H 	 -0.799454 	 1.185444 	 -6.157460 
H 	 5.321908 	 0.770418 	 -1.372839 
H 	 6.876001 	 0.728857 	 -1.244631 
H 	 2.602327 	 -2.091301 	 -2.996755 
H 	 1.275417 	 -2.994724 	 -3.051652 
H 	 -5.309005 	 -5.325209 	 -5.402365 
H 	 -6.126867 	 -6.496405 	 -5.703816 
H 	 -2.823198 	 -5.908296 	 5.811875 
H 	 -4.234968 	 -6.555069 	 6.100552 
H 	 -0.680094 	 -6.912321 	 -6.915715 
H 	 0.476701 	 -6.726279 	 6.955137 
H 	 -3.257093 	 2.053899 	 5.922157 
H 	 -3.331321 	 2.740533 	 7.347489 
H 	 0.778370 	 5.758400 	 -7.187020 
H 	 0.475670 	 4.270542 	 7.436883 
H 	 6.957671 	 -3.774886 	 5.370474 
H 	 5.651386 	 -3.088945 	 4.912315 
H 	 -6.506874 	 1.329135 	 2.490301 
H 	 -6.603425 	 0.716521 	 3.983434 
H 	 0.583151 	 -4.629637 	 0.793458 
H 	 0.655145 	 -3.842697 	 2.168133 
H 	 -0.054117 	 -0.177293 	 -1.842932 
H 	 -0.954395 	 0.859952 	 -2.630948 
H 	 -1.891325 	 3.267196 	 -3.701854 
H 	 -2.876150 	 2.460871 	 -2.687297 
H 	 0.569610 	 1.935420 	 6.520028 
H 	 -1.013606 	 2.226088 	 6.402071 
H 	 6.352423 	 3.399660 	 -5.819459 
H 	 6.787297 	 3.615045 	 -4.357868 
H 	 7.117225 	 -6.023424 	 6.721374 
H 	 6.560044 	 -5.338619 	 -7.006708 
H 	 3.269492 	 0.356700 	 -2.886745 
H 	 4.255474 	 -0.380967 	 -3.869034 
H 	 6.303345 	 -6.321986 	 -0.366111 
H 	 5.922374 	 -4.829855 	 -0.460806 
H 	 5.287613 	 -1.304220 	 -6.661612 
H 	 4.443964 	 -2.048170 	 7.168638 
H 	 7.013533 	 5.856529 	 -5.252260 
H 	 -7.176343 	 6.267779 	 -3.927199 
H 	 -6.170517 	 -4.047008 	 2.507326 
H 	 7.352166 	 -3.356404 	 2.871976 
H 	 3.782758 	 -4.107960 	 4.932304 
H 	 2.951626 	 -2.665868 	 4.746304 
H 	 -5.667658 	 -4.727003 	 6.674948 
H 	 -5.676285 	 -4.423481 	 5.122679 
H 	 -0.470202 	 -2.795243 	 -7.128169 
H 	 0.539747 	 -3.880203 	 7.387647 
H 	 0.509059 	 -6.900453 	 -0.879255 
H 	 -0.203538 	 -6.503789 	 -2.242248 
H 	 3.603903 	 6.397600 	 -3.300132 
H 	 3.297558 	 5.079116 	 -4.070345 
H 	 -1.080114 	 3.517571 	 -5.789636 
H 	 0.049914 	 3.277552 	 -4.787081 
H 	 3.533577 	 -5.958972 	 -0.014942 
H 	 4.296444 	 7.580617 	 0.258208 
H 	 -5.449611 	 3.820580 	 0.755170 
H 	 -4.833601 	 3.685207 	 2.142203 
H 	 6.209921 	 0.083467 	 -3.750960 
H 	 5.940635 	 0.797753 	 -5.102768 
H 	 -0.812349 	 6.112886 	 -2.555685 
H 	 -1.339545 	 6.475083 	 -3.986161 
H 	 1.641236 	 -2.415950 	 6.267405 
H 	 0.588689 	 -1.276738 	 5.762410 
H 	 -6.378329 	 2.215200 	 -5.029838 
H 	 -5.082376 	 1.542096 	 -4.637036 
H 	 -4.261240 	 3.852061 	 -3.794617 
H 	 -5.582657 	 4.318376 	 -4.459962 
H 	 -0.475749 	 -5.337573 	 5.279945 
H 	 -1.989245 	 -5.667072 	 3.802763 
H 	 -6.063982 	 6.996046 	 4.828073 
H 	 -5.201906 	 -7.119499 	 3.788304 
H 	 -3.430894 	 -0.714811 	 2.799717 
H 	 -4.928233 	 -0.516654 	 2.703691 
H 	 2.491517 	 3.235993 	 -4.524785 
H 	 1.961011 	 4.151603 	 -5.607733 
H 	 3.668788 	 -6.768161 	 5.787907 
H 	 4.709600 	 -5.758725 	 6.349237 
H 	 2.137303 	 5.266968 	 5.230720 
H 	 1.090437 	 4.054689 	 5.197719 
H 	 0.495016 	 -4.810826 	 -4.290309 
H 	 0.016915 	 -3.607949 	 -4.991829 
H 	 3.998239 	 2.602829 	 -2.197268 
H 	 3.121156 	 1.710562 	 -1.189641 
H 	 7.113155 	 -1.855539 	 -7.153167 
H 	 -6.248703 	 -2.397715 	 -6.844061 
H 	 2.245595 	 0.851853 	 -6.941843 
H 	 2.548139 	 1.561525 	 6.607305 
H 	 2.210045 	 -1.627424 	 -6.360179 
H 	 2.403039 	 -0.582726 	 -5.168681 
H 	 0.861163 	 -6.865487 	 -5.656729 
H 	 0.596334 	 -7.091978 	 -4.129923 
H 	 -1.803155 	 4.424637 	 2.087033 
H 	 -1.993296 	 3.270126 	 1.270870 
H 	 1.969043 	 6.821754 	 0.352922 
H 	 0.915519 	 6.199943 	 1.303240 
H 	 5.183815 	 2.362673 	 -7.367234 
H 	 4.238658 	 2.159021 	 -6.263156 
H 	 -2.917420 	 5.184613 	 -5.978829 
H 	 -2.608986 	 5.173475 	 7.298542 
H 	 -3.488261 	 0.777204 	 -6.734255 
H 	 -3.532582 	 -0.107328 	 -5.459140 
H 	 -2.539154 	 -6.846414 	 1.742803 
H 	 -1.073101 	 -7.298863 	 2.066492 
H 	 -0.926523 	 1.228365 	 2.506782 
H 	 -1.192788 	 -0.181062 	 1.690881 
H 	 -6.091135 	 -6.950843 	 1.517309 
H 	 -7.152153 	 -5.776575 	 1.660065 
H 	 -7.210108 	 1.696002 	 -6.705159 
H 	 -5.991340 	 0.816195 	 -7.045172 
H 	 -2.019170 	 -3.658564 	 5.793172 
H 	 -2.118770 	 -2.185251 	 5.859892 
H 	 -4.239612 	 1.922614 	 3.729935 
H 	 -3.462698 	 3.226781 	 4.030588 
H 	 5.385623 	 4.692858 	 -3.158253 
H 	 6.615119 	 4.194134 	 -2.270706 
H 	 -3.597889 	 -5.476937 	 -3.152251 
H 	 -5.068496 	 -5.406296 	 -2.601483 
H 	 1.782515 	 -1.768168 	 -0.962014 
H 	 1.273588 	 -1.280326 	 0.460211 
H 	 -3.472738 	 -4.160022 	 0.156324 
H 	 -4.422256 	 -4.015929 	 1.397138 
H 	 -3.398170 	 -1.417397 	 0.324526 
H 	 -4.863773 	 -1.535196 	 -0.249308 
H 	 3.163023 	 -6.401837 	 3.125421 
H 	 1.946251 	 -5.624788 	 2.532909 
H 	 3.321451 	 -4.055656 	 7.026877 
H 	 3.397035 	 -3.559181 	 -6.438637 
H 	 -7.205662 	 3.954482 	 2.616175 
H 	 6.687672 	 3.276449 	 3.515265 
H 	 -0.893666 	 -2.324886 	 1.870953 
H 	 -1.265128 	 -2.275416 	 0.380979 
H 	 -2.683314 	 6.959515 	 6.072201 
H 	 -1.210053 	 6.385004 	 6.048552 
H 	 6.403168 	 -6.790244 	 -4.520789 
H 	 5.124733 	 -6.307329 	 -3.848910 
H 	 -4.140909 	 7.454180 	 0.228385 
H 	 -4.387541 	 6.330075 	 1.332708 
H 	 -3.000689 	 0.173182 	 -3.151031 
H 	 -3.765990 	 -0.122802 	 -1.769863 
H 	 -6.780562 	 -4.704031 	 -1.205475 
H 	 -5.308413 	 -3.930187 	 -1.183029 
H 	 5.911146 	 -7.164389 	 2.696679 
H 	 4.914606 	 6.583100 	 2.923814 
H 	 1.393945 	 2.729474 	 -0.491187 
H 	 1.081554 	 1.234164 	 -0.447021 
H 	 3.972353 	 6.125722 	 6.499191 
H 	 4.405768 	 6.601758 	 4.948740 
H 	 4.627646 	 3.723997 	 4.853910 
H 	 4.803429 	 2.252688 	 4.779631 
H 	 5.400736 	 7.140330 	 -7.044082 
H 	 4.422537 	 6.095293 	 -6.251513 
H 	 0.162298 	 -2.688991 	 4.392253 
H 	 -0.863374 	 -3.884071 	 4.037579 
H 	 2.744926 	 4.830010 	 3.567205 
H 	 3.814919 	 3.976280 	 2.859077 
H 	 3.479819 	 -3.566219 	 -0.975502 
H 	 4.247459 	 -3.218452 	 0.313920 
H 	 -3.284043 	 -2.194526 	 -3.665787 
H 	 -4.433504 	 -1.301966 	 -4.018165 
H 	 7.203093 	 5.098349 	 5.883923 
H 	 7.300011 	 5.286919 	 4.385314 
H 	 4.207222 	 -3.084695 	 2.382638 
H 	 4.823768 	 -1.598960 	 2.139945 
H 	 0.937017 	 2.098009 	 1.881308 
H 	 0.890030 	 3.068433 	 2.990120 
H 	 4.448048 	 3.901273 	 0.270518 
H 	 3.529468 	 4.760590 	 -0.625907 
H 	 1.105771 	 7.352751 	 3.112637 
H 	 0.685328 	 5.951152 	 3.585846 
H 	 -3.909519 	 5.981862 	 -4.306469 
H 	 -3.284217 	 7.269352 	 -5.034301 
H 	 -2.072604 	 4.438926 	 -1.664647 
H 	 -1.685266 	 4.864961 	 -0.203930 
H 	 -2.601811 	 -3.110260 	 -1.718884 
H 	 -1.779609 	 -3.731817 	 -2.942524 
H 	 -2.963541 	 1.212879 	 1.327294 
H 	 -3.520689 	 1.747811 	 -0.107822 
H 	 -1.697679 	 -5.123398 	 0.684096 
H 	 -1.175833 	 -4.991334 	 -0.688434 
H 	 -4.134624 	 5.389120 	 3.873658 
H 	 -2.816918 	 5.107874 	 4.513003 
H 	 1.091986 	 -5.250151 	 4.845019 
H 	 -2.849505 	 -6.103028 	 -6.797962 
H 	 -6.037557 	 1.521769 	 0.083818 
H 	 -6.553997 	 -0.000292 	 0.119147 
H 	 4.618361 	 1.154999 	 1.624215 
H 	 3.450461 	 1.843843 	 0.804924 
H 	 2.575445 	 -6.346917 	 -2.400119 
H 	 2.635305 	 -6.367251 	 -3.951788 
H 	 -1.086083 	 -0.057556 	 6.649612 
H 	 -0.995584 	 0.466667 	 5.064346 
H 	 -2.439313 	 -5.163301 	 -5.609200 
O 	 7.241164 	 -0.023999 	 5.100295 
O 	 4.215465 	 -3.710115 	 -4.860038 
O 	 -5.870827 	 -0.849129 	 -3.218009 
O 	 5.147124 	 -0.048182 	 3.036461 
O 	 -6.795895 	 -1.723205 	 0.105002 
O 	 6.190828 	 -2.403210 	 -1.943001 
O 	 -4.436896 	 -4.227556 	 3.588023 
O 	 -6.693281 	 6.132110 	 -1.976173 
O 	 -4.521635 	 -2.760811 	 -6.646398 
O 	 -5.478663 	 3.863658 	 -1.115016 
O 	 2.750107 	 0.558448 	 4.565184 
O 	 -4.028631 	 6.965969 	 -1.375328 
O 	 1.687900 	 4.222389 	 -1.292626 
O 	 6.298141 	 6.880648 	 0.029520 
O 	 -0.771538 	 0.245472 	 -6.369519 
O 	 6.123152 	 0.347685 	 -1.779785 
O 	 2.146496 	 -2.866683 	 -2.526649 
O 	 -6.102911 	 -5.546189 	 -5.901523 
O 	 -3.343122 	 -6.518517 	 6.492168 
O 	 0.156506 	 7.562413 	 -7.250654 
O 	 -2.913550 	 1.994218 	 6.864316 
O 	 1.118926 	 4.864279 	 -7.105862 
O 	 6.614797 	 -3.011111 	 4.834113 
O 	 -5.977973 	 1.045223 	 3.242590 
O 	 1.198488 	 -4.235893 	 1.460295 
O 	 -0.024207 	 0.670610 	 -2.385656 
O 	 -2.627003 	 3.317411 	 -3.051590 
O 	 -0.132673 	 2.299671 	 5.942018 
O 	 7.166833 	 3.622994 	 -5.288397 
O 	 6.235331 	 -5.892535 	 7.173042 
O 	 3.329643 	 -0.421296 	 -3.474150 
O 	 6.615671 	 -5.472244 	 -0.701653 
O 	 5.109990 	 -1.335793 	 7.272085 
O 	 -7.443985 	 6.642218 	 -4.847580 
O 	 -7.062247 	 -3.759786 	 2.148430 
O 	 3.683347 	 -3.236330 	 4.363291 
O 	 -6.215911 	 -4.480095 	 5.932009 
O 	 0.456340 	 -3.066112 	 -6.966818 
O 	 -0.011991 	 -6.179267 	 -1.371964 
O 	 3.963122 	 5.765238 	 -3.951463 
O 	 -0.788643 	 2.845290 	 -5.119605 
O 	 3.360613 	 -6.917412 	 0.120586 
O 	 -5.389903 	 4.326987 	 1.625145 
O 	 5.804459 	 -0.041662 	 -4.630636 
O 	 -0.551961 	 6.532999 	 -3.379056 
O 	 1.400133 	 -1.806742 	 5.485341 
O 	 -5.935623 	 1.875102 	 -4.222338 
O 	 -4.802139 	 4.631508 	 -4.008029 
O 	 -2.073007 	 -5.187805 	 4.654865 
O 	 -5.147606 	 7.090434 	 4.488698 
O 	 -4.254311 	 -1.236245 	 2.793609 
O 	 1.856278 	 3.924988 	 -4.636582 
O 	 3.839613 	 -5.749890 	 5.942110 
O 	 1.415527 	 4.821193 	 4.708577 
O 	 -0.038855 	 -4.017060 	 -4.138023 
O 	 3.849049 	 1.686493 	 -1.860899 
O 	 -7.172546 	 -2.318772 	 -6.491193 
O 	 2.063755 	 1.683247 	 7.458988 
O 	 2.055874 	 -0.675619 	 -6.098835 
O 	 1.056814 	 -6.484953 	 -4.732144 
O 	 -1.297576 	 3.985921 	 1.326558 
O 	 1.137851 	 6.275239 	 0.336537 
O 	 5.206778 	 2.020957 	 -6.444857 
O 	 -2.500111 	 4.654003 	 -6.755506 
O 	 -4.030084 	 0.550757 	 -5.923927 
O 	 -1.623958 	 -6.548826 	 1.723166 
O 	 -1.548749 	 0.729840 	 1.940674 
O 	 -7.012344 	 -6.712907 	 1.870827 
O 	 -6.825788 	 1.146363 	 7.486300 
O 	 -2.300435 	 -2.979410 	 6.429138 
O 	 -3.360916 	 2.209465 	 4.002875 
O 	 5.929823 	 3.920214 	 -2.924713 
O 	 -4.469978 	 -5.937536 	 -3.251045 
O 	 1.794979 	 -1.010554 	 -0.347561 
O 	 -4.422632 	 -4.056371 	 0.435308 
O 	 -3.924237 	 -1.500361 	 -0.494276 
O 	 2.220132 	 -6.204141 	 3.281523 
O 	 3.270245 	 -3.252522 	 -7.345259 
O 	 6.753717 	 4.083102 	 2.957922 
O 	 -0.999633 	 -1.750441 	 1.123998 
O 	 -2.131744 	 6.175281 	 5.834199 
O 	 5.856413 	 -5.974546 	 -4.454081 
O 	 -4.350092 	 7.291298 	 1.225077 
O 	 -3.156683 	 0.506796 	 -2.229335 
O 	 -6.039556 	 -4.354074 	 -1.766828 
O 	 5.114572 	 7.514625 	 3.146020 
O 	 1.689141 	 1.885461 	 0.015973 
O 	 3.691237 	 6.454054 	 5.610117 
O 	 4.919434 	 2.980102 	 5.404995 
O 	 5.052118 	 6.215159 	 -7.007779 
O 	 -0.469354 	 -3.033673 	 3.684648 
O 	 3.717016 	 4.792983 	 3.356868 
O 	 4.218181 	 -3.865187 	 -0.409316 
O 	 -3.515524 	 -1.575933 	 -4.381850 
O 	 -7.425428 	 5.708518 	 5.212504 
O 	 4.568375 	 -2.486564 	 1.747658 
O 	 0.904307 	 2.118198 	 2.847240 
O 	 4.414863 	 4.773020 	 -0.184537 
O 	 0.462246 	 6.635790 	 2.909858 
O 	 -3.093903 	 6.380237 	 -4.661750 
O 	 -1.768183 	 5.210699 	 -1.156626 
O 	 -2.634930 	 -3.573808 	 -2.577629 
O 	 -3.778054 	 1.638750 	 0.822319 
O 	 -1.580645 	 -4.429596 	 0.024347 
O 	 -3.337477 	 4.870215 	 3.739223 
O 	 0.489694 	 -5.253044 	 5.635585 
O 	 -6.845657 	 0.950722 	 0.115842 
O 	 4.366558 	 2.021283 	 1.206671 
O 	 3.208160 	 -6.448562 	 -3.099512 
O 	 -0.994227 	 -0.306698 	 5.679147 
O 	 -2.454651 	 -6.121432 	 -5.884780 
K 	 7.378458 	 -3.456308 	 -4.245353 
