333
conformation = 51
H 	 7.171777 	 -1.002832 	 5.246435 
H 	 7.199059 	 0.217570 	 6.056471 
H 	 3.634054 	 -3.969611 	 -4.132936 
H 	 4.812945 	 -4.452948 	 -5.015144 
H 	 -6.004007 	 -1.036530 	 -2.234145 
H 	 -6.070316 	 0.077682 	 -3.305144 
H 	 4.377385 	 0.198971 	 3.633971 
H 	 5.921888 	 -0.177553 	 3.694435 
H 	 -6.858357 	 -2.306968 	 0.884499 
H 	 -7.331089 	 -2.228623 	 -0.567291 
H 	 5.401834 	 -2.920833 	 -1.582613 
H 	 6.047120 	 -1.437684 	 -1.915184 
H 	 -3.537347 	 -4.509540 	 4.048142 
H 	 -4.300325 	 -3.239058 	 3.520793 
H 	 -7.251018 	 6.402591 	 -1.224082 
H 	 -5.761645 	 6.352982 	 -1.717450 
H 	 -3.816734 	 -2.761896 	 -7.356451 
H 	 -4.201096 	 -2.275873 	 -5.834481 
H 	 -5.788614 	 4.630879 	 -1.608867 
H 	 -4.552801 	 3.693411 	 -1.427933 
H 	 2.246611 	 -0.199620 	 4.826945 
H 	 2.201509 	 1.122486 	 3.958999 
H 	 -3.188552 	 6.437182 	 -1.462908 
H 	 -4.044948 	 -7.195296 	 -1.991094 
H 	 1.345279 	 4.325798 	 -2.210548 
H 	 1.293181 	 5.001957 	 -0.759060 
H 	 5.752400 	 6.132360 	 0.389291 
H 	 6.952774 	 7.099392 	 0.738367 
H 	 0.193524 	 -0.013646 	 -6.234479 
H 	 -0.740400 	 1.181566 	 -6.036808 
H 	 5.341176 	 0.821791 	 -1.441837 
H 	 6.891745 	 0.773938 	 -1.326266 
H 	 2.496825 	 -2.054993 	 -2.999951 
H 	 1.351837 	 -2.973674 	 -3.048349 
H 	 -5.301920 	 -5.362398 	 -5.338778 
H 	 -6.115064 	 -6.538087 	 -5.747305 
H 	 -2.880112 	 -5.949061 	 5.772514 
H 	 -4.259175 	 -6.615173 	 6.098335 
H 	 -0.709956 	 -6.970233 	 -6.925908 
H 	 0.433861 	 -6.717718 	 6.863964 
H 	 -3.246615 	 2.065294 	 5.940486 
H 	 -3.241063 	 2.832336 	 7.237279 
H 	 0.694024 	 5.769507 	 -7.248687 
H 	 0.463657 	 4.161104 	 7.426724 
H 	 6.939141 	 -3.778034 	 5.394677 
H 	 5.622414 	 -3.119826 	 4.895108 
H 	 -6.536445 	 1.180982 	 2.409473 
H 	 -6.548382 	 0.728898 	 3.955427 
H 	 0.595662 	 -4.511366 	 0.771380 
H 	 0.532908 	 -3.824531 	 2.152299 
H 	 -0.039964 	 -0.137896 	 -1.913611 
H 	 -0.890713 	 0.860815 	 -2.727002 
H 	 -1.901323 	 3.287020 	 -3.697627 
H 	 -2.808303 	 2.383819 	 -2.771334 
H 	 0.547775 	 2.006485 	 6.622494 
H 	 -1.010100 	 2.291180 	 6.309594 
H 	 6.394775 	 3.494299 	 -5.825634 
H 	 6.786656 	 3.592917 	 -4.339257 
H 	 7.087476 	 -6.032255 	 6.761355 
H 	 6.518975 	 -5.288368 	 -6.973178 
H 	 3.313807 	 0.398266 	 -2.856605 
H 	 4.211310 	 -0.303235 	 -3.827405 
H 	 6.314282 	 -6.362100 	 -0.392699 
H 	 5.920755 	 -4.876258 	 -0.437436 
H 	 5.302802 	 -1.307718 	 -6.675400 
H 	 4.508268 	 -2.061279 	 7.114982 
H 	 6.998150 	 5.918039 	 -5.285586 
H 	 -7.176613 	 6.324178 	 -3.976292 
H 	 -6.251726 	 -4.048267 	 2.513838 
H 	 7.337754 	 -3.434587 	 2.959771 
H 	 3.730121 	 -4.047476 	 4.861941 
H 	 2.942082 	 -2.729351 	 4.657611 
H 	 -5.668310 	 -4.793136 	 6.688807 
H 	 -5.661751 	 -4.294232 	 5.134556 
H 	 -0.495616 	 -2.888625 	 -7.175892 
H 	 0.544365 	 -3.911972 	 7.425825 
H 	 0.357905 	 -6.889275 	 -0.863170 
H 	 -0.182156 	 -6.641490 	 -2.241979 
H 	 3.696650 	 6.521400 	 -3.350169 
H 	 3.192186 	 5.193009 	 -4.108136 
H 	 -1.065392 	 3.603918 	 -5.768179 
H 	 0.037808 	 3.170807 	 -4.806138 
H 	 3.568926 	 -5.924559 	 0.036375 
H 	 4.200989 	 -7.269731 	 0.302837 
H 	 -5.373812 	 3.959428 	 0.744203 
H 	 -4.918122 	 3.643875 	 2.104032 
H 	 6.230125 	 0.078113 	 -3.767564 
H 	 5.828069 	 0.766404 	 -5.186080 
H 	 -0.777902 	 6.135930 	 -2.483808 
H 	 -1.353780 	 6.477039 	 -3.909155 
H 	 1.667941 	 -2.330445 	 6.263156 
H 	 0.581298 	 -1.269209 	 5.668024 
H 	 -6.426703 	 2.291339 	 -4.977599 
H 	 -5.167465 	 1.564113 	 -4.736987 
H 	 -4.234808 	 3.828338 	 -3.904180 
H 	 -5.603125 	 4.206443 	 -4.432063 
H 	 -0.441643 	 -5.341439 	 5.304160 
H 	 -2.005341 	 -5.600504 	 3.760485 
H 	 -6.061712 	 6.801043 	 4.741841 
H 	 -5.220461 	 -7.139015 	 3.786226 
H 	 -3.446759 	 -0.687903 	 2.759695 
H 	 -4.945342 	 -0.585069 	 2.671363 
H 	 2.436713 	 3.120198 	 -4.500069 
H 	 1.881577 	 4.279391 	 -5.562004 
H 	 3.650865 	 -6.679428 	 5.784155 
H 	 4.714882 	 -5.901518 	 6.500859 
H 	 2.115639 	 5.280059 	 5.176650 
H 	 1.011292 	 4.091078 	 5.225433 
H 	 0.447104 	 -4.870051 	 -4.316965 
H 	 0.069405 	 -3.471426 	 -5.004630 
H 	 4.033599 	 2.610742 	 -2.110313 
H 	 3.077003 	 1.723348 	 -1.246321 
H 	 7.184677 	 -1.838064 	 -7.084921 
H 	 -6.237913 	 -2.506643 	 -6.847290 
H 	 2.265687 	 0.799639 	 -7.036080 
H 	 2.584549 	 1.643684 	 6.625401 
H 	 2.017870 	 -1.616941 	 -6.315908 
H 	 2.365157 	 -0.603422 	 -5.180710 
H 	 0.816608 	 -6.857854 	 -5.614561 
H 	 0.575302 	 -7.110571 	 -4.124915 
H 	 -1.694277 	 4.410219 	 2.071395 
H 	 -1.896361 	 3.194668 	 1.226920 
H 	 1.930910 	 6.879416 	 0.394417 
H 	 0.944556 	 6.259256 	 1.312098 
H 	 5.273391 	 2.255995 	 7.472115 
H 	 4.294915 	 2.095167 	 -6.232072 
H 	 -2.970381 	 5.116034 	 -6.087847 
H 	 -2.630023 	 5.131491 	 7.313927 
H 	 -3.473532 	 0.645920 	 -6.760110 
H 	 -3.501578 	 -0.039429 	 -5.369521 
H 	 -2.559915 	 -6.903171 	 1.755166 
H 	 -1.093902 	 -7.314580 	 1.941377 
H 	 -0.923325 	 1.244282 	 2.491245 
H 	 -1.281059 	 -0.158085 	 1.690234 
H 	 -6.089146 	 -7.011950 	 1.624500 
H 	 -7.186046 	 -5.794462 	 1.687610 
H 	 -7.167430 	 1.704991 	 -6.717314 
H 	 -6.023355 	 0.741668 	 -7.045831 
H 	 -2.124001 	 -3.711658 	 5.798857 
H 	 -2.165844 	 -2.205642 	 5.880329 
H 	 -4.246808 	 1.823951 	 3.738714 
H 	 -3.419555 	 3.204351 	 3.953391 
H 	 5.398945 	 4.760809 	 -3.057500 
H 	 6.652516 	 4.263816 	 -2.365731 
H 	 -3.652637 	 -5.491275 	 -3.157789 
H 	 -5.060948 	 -5.380544 	 -2.661359 
H 	 1.832541 	 -1.818039 	 -0.922707 
H 	 1.380966 	 -1.244354 	 0.455070 
H 	 -3.474981 	 -4.148493 	 0.242060 
H 	 -4.518502 	 -3.972494 	 1.389621 
H 	 -3.410319 	 -1.561803 	 0.330918 
H 	 -4.870084 	 -1.644279 	 -0.214873 
H 	 3.193954 	 -6.391038 	 3.140891 
H 	 1.909643 	 -5.676993 	 2.525244 
H 	 3.160100 	 -4.052848 	 6.946549 
H 	 3.489818 	 -3.617829 	 -6.384551 
H 	 -7.259716 	 3.922337 	 2.530879 
H 	 6.821906 	 3.310930 	 3.542504 
H 	 -0.945312 	 -2.336224 	 1.949533 
H 	 -1.211147 	 -2.407471 	 0.400133 
H 	 -2.702642 	 6.988057 	 6.074568 
H 	 -1.247097 	 6.402852 	 6.068079 
H 	 6.397760 	 -6.766718 	 -4.578483 
H 	 5.188548 	 -6.216389 	 -3.762120 
H 	 -4.138303 	 7.379145 	 0.264646 
H 	 -4.476184 	 6.323460 	 1.376270 
H 	 -3.036045 	 0.064129 	 -3.065366 
H 	 -3.703134 	 -0.078715 	 -1.673693 
H 	 -6.858881 	 -4.598727 	 -1.256836 
H 	 -5.384247 	 -4.038249 	 -1.186156 
H 	 5.990836 	 -7.149622 	 2.748104 
H 	 5.000677 	 6.555827 	 2.910160 
H 	 1.417194 	 2.712006 	 -0.453824 
H 	 1.104958 	 1.220426 	 -0.459785 
H 	 4.051085 	 6.134186 	 6.432899 
H 	 4.457639 	 6.640247 	 5.031995 
H 	 4.606256 	 3.661447 	 4.795699 
H 	 4.813653 	 2.127602 	 4.894751 
H 	 5.411115 	 7.131309 	 -7.026640 
H 	 4.423524 	 6.191436 	 -6.276921 
H 	 0.195875 	 -2.664736 	 4.285259 
H 	 -0.802331 	 -3.834941 	 4.127966 
H 	 2.778475 	 4.791074 	 3.545594 
H 	 3.925741 	 3.998390 	 2.752714 
H 	 3.506294 	 -3.513539 	 -1.011220 
H 	 4.227048 	 -3.200154 	 0.371156 
H 	 -3.302437 	 -2.187037 	 -3.637331 
H 	 -4.349042 	 -1.183306 	 -4.008390 
H 	 7.205126 	 5.033255 	 5.870858 
H 	 7.250164 	 5.355897 	 4.264175 
H 	 4.175166 	 -3.055618 	 2.463843 
H 	 4.738335 	 -1.600684 	 2.099265 
H 	 1.087210 	 2.170795 	 1.866343 
H 	 0.830871 	 3.073933 	 3.079084 
H 	 4.426915 	 3.920613 	 0.298414 
H 	 3.529603 	 4.744852 	 -0.609872 
H 	 1.095164 	 7.429288 	 3.050169 
H 	 0.712005 	 5.975070 	 3.583434 
H 	 -3.940275 	 5.917548 	 -4.404438 
H 	 -3.211187 	 7.301921 	 -5.059096 
H 	 -2.096027 	 4.440696 	 -1.736521 
H 	 -1.713319 	 4.826688 	 -0.261751 
H 	 -2.512766 	 -3.195740 	 -1.692746 
H 	 -1.673482 	 -3.696376 	 -2.931665 
H 	 -3.026863 	 1.274233 	 1.262128 
H 	 -3.478194 	 1.736726 	 -0.134464 
H 	 -1.697106 	 -5.129400 	 0.703084 
H 	 -1.236352 	 -4.942606 	 -0.743441 
H 	 -4.208774 	 5.439143 	 3.820245 
H 	 -2.850069 	 5.148710 	 4.599388 
H 	 1.104383 	 -5.100689 	 4.931956 
H 	 -2.868097 	 -6.098412 	 -6.813401 
H 	 -6.103568 	 1.540601 	 0.065554 
H 	 -6.561095 	 0.009531 	 0.111222 
H 	 4.659213 	 1.237476 	 1.660343 
H 	 3.528291 	 1.880106 	 0.763421 
H 	 2.632283 	 -6.401178 	 -2.287669 
H 	 2.647767 	 -6.410341 	 -3.906671 
H 	 -1.144042 	 0.077645 	 6.610322 
H 	 -1.083928 	 0.446006 	 5.095858 
H 	 -2.328964 	 -5.235128 	 -5.572030 
O 	 7.245217 	 -0.019131 	 5.100099 
O 	 4.202793 	 -3.722240 	 -4.886424 
O 	 -5.874718 	 -0.860982 	 -3.179023 
O 	 5.176638 	 -0.046095 	 3.064641 
O 	 -6.788214 	 -1.727291 	 0.095201 
O 	 6.199783 	 -2.405957 	 -1.943991 
O 	 -4.417943 	 -4.211997 	 3.571699 
O 	 -6.683928 	 6.151982 	 -1.976370 
O 	 -4.508577 	 -2.754834 	 -6.637145 
O 	 -5.471644 	 3.853030 	 -1.105676 
O 	 2.760039 	 0.581036 	 4.557462 
O 	 -4.022209 	 6.969660 	 -1.368932 
O 	 1.672123 	 4.211805 	 -1.283227 
O 	 6.291677 	 6.846853 	 0.051521 
O 	 -0.746713 	 0.222371 	 -6.335508 
O 	 6.133867 	 0.326507 	 -1.773041 
O 	 2.139923 	 -2.854965 	 -2.538994 
O 	 -6.118245 	 -5.553224 	 -5.891781 
O 	 -3.325446 	 -6.516619 	 6.470797 
O 	 0.130919 	 7.561552 	 -7.256889 
O 	 -2.895514 	 2.006030 	 6.848075 
O 	 1.127287 	 4.865518 	 -7.138124 
O 	 6.603350 	 -3.014848 	 4.830738 
O 	 -5.979178 	 1.060413 	 3.230617 
O 	 1.186452 	 -4.230314 	 1.488912 
O 	 -0.008808 	 0.677944 	 -2.378680 
O 	 -2.634654 	 3.324121 	 -3.044614 
O 	 -0.114145 	 2.284785 	 5.940532 
O 	 7.182593 	 3.637365 	 -5.284319 
O 	 6.236559 	 -5.899562 	 7.197993 
O 	 3.315441 	 -0.422233 	 -3.464214 
O 	 6.633791 	 -5.477503 	 -0.709253 
O 	 5.141568 	 -1.322988 	 7.272321 
O 	 -7.422594 	 6.631069 	 -4.827472 
O 	 -7.086858 	 -3.773126 	 2.142233 
O 	 3.681925 	 -3.240868 	 4.363554 
O 	 -6.215436 	 -4.479759 	 5.932305 
O 	 0.453715 	 -3.084948 	 -6.936175 
O 	 0.006857 	 -6.173977 	 -1.372430 
O 	 3.982408 	 5.790394 	 -3.947295 
O 	 -0.817025 	 2.860575 	 -5.142037 
O 	 3.354791 	 -6.900155 	 0.120652 
O 	 -5.380450 	 4.357499 	 1.622469 
O 	 5.800642 	 -0.058217 	 -4.649846 
O 	 -0.506819 	 6.520901 	 -3.368470 
O 	 1.402430 	 -1.816335 	 5.509110 
O 	 -5.931327 	 1.875937 	 -4.248364 
O 	 -4.799242 	 4.623893 	 -4.009934 
O 	 -2.060803 	 -5.192227 	 4.650582 
O 	 -5.159077 	 7.089958 	 4.480437 
O 	 -4.247174 	 -1.251767 	 2.809650 
O 	 1.856510 	 3.927081 	 -4.631623 
O 	 3.879885 	 -5.753896 	 5.945991 
O 	 1.412388 	 4.822997 	 4.704640 
O 	 -0.048753 	 -4.010279 	 -4.157043 
O 	 3.837771 	 1.690103 	 -1.848490 
O 	 -7.151168 	 -2.339652 	 -6.497716 
O 	 2.076619 	 1.679764 	 7.452507 
O 	 2.071374 	 -0.676242 	 -6.100560 
O 	 1.045759 	 -6.491704 	 -4.742676 
O 	 -1.310226 	 3.969763 	 1.308132 
O 	 1.143613 	 6.254114 	 0.338742 
O 	 5.224440 	 2.037222 	 -6.456326 
O 	 -2.497152 	 4.639118 	 -6.757301 
O 	 -4.031251 	 0.573597 	 -5.960623 
O 	 -1.622514 	 -6.534948 	 1.713517 
O 	 -1.548062 	 0.741419 	 1.941664 
O 	 -6.999401 	 -6.750187 	 1.843734 
O 	 -6.836383 	 1.150809 	 7.466755 
O 	 -2.328160 	 -2.977539 	 6.437806 
O 	 -3.369549 	 2.228033 	 4.006399 
O 	 5.949765 	 3.912891 	 -2.925469 
O 	 -4.499205 	 -5.930788 	 -3.256290 
O 	 1.821218 	 -1.025624 	 -0.351732 
O 	 -4.414853 	 -4.062207 	 0.418700 
O 	 -3.917952 	 -1.490100 	 -0.501018 
O 	 2.220342 	 -6.197667 	 3.304745 
O 	 3.285067 	 -3.259158 	 -7.340682 
O 	 6.778064 	 4.079216 	 2.950692 
O 	 -0.980596 	 -1.747506 	 1.121043 
O 	 -2.160785 	 6.171905 	 5.822727 
O 	 5.843930 	 -5.951050 	 -4.415842 
O 	 -4.319834 	 7.302808 	 1.230099 
O 	 -3.162737 	 0.518408 	 -2.236019 
O 	 -6.041425 	 -4.365744 	 -1.759313 
O 	 5.094508 	 7.505334 	 3.140480 
O 	 1.674015 	 1.859008 	 -0.017238 
O 	 3.672156 	 6.455764 	 5.575496 
O 	 4.942016 	 2.956320 	 5.412825 
O 	 5.072626 	 6.219367 	 -7.012739 
O 	 -0.473186 	 -3.020563 	 3.703765 
O 	 3.716249 	 4.763347 	 3.357473 
O 	 4.207856 	 -3.867014 	 -0.424875 
O 	 -3.551116 	 -1.564622 	 -4.377325 
O 	 -7.410391 	 5.718211 	 5.206368 
O 	 4.590265 	 -2.495839 	 1.739825 
O 	 0.929904 	 2.115423 	 2.870771 
O 	 4.407444 	 4.769122 	 -0.202705 
O 	 0.462785 	 6.654178 	 2.915097 
O 	 -3.090019 	 6.388023 	 -4.658195 
O 	 -1.783732 	 5.211240 	 -1.152920 
O 	 -2.638263 	 -3.578600 	 -2.587613 
O 	 -3.769515 	 1.635786 	 0.795308 
O 	 -1.569974 	 -4.408625 	 0.004624 
O 	 -3.354988 	 4.883607 	 3.755284 
O 	 0.477791 	 -5.263431 	 5.656534 
O 	 -6.852183 	 0.947696 	 0.112348 
O 	 4.364648 	 2.029065 	 1.178856 
O 	 3.209322 	 -6.449142 	 -3.109219 
O 	 -0.996928 	 -0.305128 	 5.683935 
O 	 -2.433895 	 -6.128556 	 -5.907360 
K 	 7.386456 	 -3.452166 	 -4.253440 
