333
conformation = 22
H 	 6.962389 	 -1.052833 	 5.348432 
H 	 7.190173 	 0.342799 	 5.959925 
H 	 3.421676 	 -3.810942 	 -4.246311 
H 	 4.578435 	 -4.624059 	 -4.942226 
H 	 -5.806584 	 -0.903895 	 -2.100830 
H 	 -6.248255 	 -0.041726 	 -3.274418 
H 	 4.431650 	 -0.006827 	 3.809029 
H 	 5.991011 	 0.090241 	 3.666884 
H 	 -6.943207 	 -2.433688 	 0.783383 
H 	 7.390560 	 -2.180701 	 -0.606804 
H 	 5.454991 	 -2.996810 	 -1.442697 
H 	 6.033729 	 -1.503634 	 -1.870125 
H 	 -3.620355 	 -4.662748 	 3.837804 
H 	 -4.115091 	 -3.205028 	 3.456889 
H 	 -7.362356 	 6.212327 	 -1.270683 
H 	 -6.012877 	 6.673095 	 -1.732975 
H 	 -3.890300 	 -2.767860 	 7.462871 
H 	 -4.444748 	 -2.046615 	 -6.074654 
H 	 -5.858478 	 4.348662 	 -1.725977 
H 	 -4.621580 	 3.558433 	 -1.450803 
H 	 2.296669 	 -0.049940 	 4.942792 
H 	 2.044057 	 1.228513 	 4.033314 
H 	 -3.326400 	 6.295388 	 -1.381050 
H 	 -4.042069 	 7.504419 	 -2.144415 
H 	 1.234327 	 4.385606 	 -2.176146 
H 	 1.173623 	 4.927619 	 -0.677416 
H 	 5.609401 	 5.917025 	 0.315505 
H 	 6.639199 	 6.982677 	 0.917232 
H 	 0.209577 	 -0.085718 	 -6.099197 
H 	 -0.844693 	 0.927782 	 -5.693126 
H 	 5.297086 	 0.745071 	 -1.848541 
H 	 6.660865 	 0.583571 	 -1.088771 
H 	 2.186863 	 -1.957273 	 -3.075055 
H 	 1.351823 	 -3.208808 	 -3.155694 
H 	 -5.513625 	 -5.726157 	 -5.202338 
H 	 -6.639512 	 -6.546136 	 -5.685223 
H 	 -2.905940 	 -6.002588 	 5.487633 
H 	 -4.262807 	 -6.856627 	 5.945998 
H 	 -1.008750 	 -7.155532 	 -7.051407 
H 	 0.128337 	 -6.652070 	 6.807212 
H 	 -3.227375 	 2.227180 	 5.777213 
H 	 -2.884247 	 2.923728 	 7.113483 
H 	 0.380047 	 5.577901 	 -7.301114 
H 	 0.582286 	 3.960652 	 7.371791 
H 	 6.758673 	 -3.522085 	 5.534181 
H 	 5.465600 	 -3.115253 	 4.859080 
H 	 -6.505481 	 0.752345 	 2.246011 
H 	 -6.551802 	 0.679928 	 3.858415 
H 	 0.723153 	 -4.071095 	 0.692651 
H 	 0.304361 	 -3.864004 	 2.203596 
H 	 0.119754 	 -0.224360 	 -2.119288 
H 	 -0.889542 	 0.773108 	 -2.789704 
H 	 -2.130311 	 3.232245 	 -3.828305 
H 	 -2.951378 	 2.303626 	 -2.833482 
H 	 0.283720 	 1.834396 	 6.658218 
H 	 -1.074936 	 2.362991 	 6.060591 
H 	 6.564036 	 3.480910 	 -6.041983 
H 	 6.515683 	 3.845639 	 -4.509592 
H 	 6.853122 	 -5.850093 	 6.659982 
H 	 6.459159 	 -5.274540 	 -6.947091 
H 	 3.238061 	 0.378906 	 -2.956954 
H 	 4.031323 	 -0.536379 	 -3.863621 
H 	 6.357645 	 -6.464077 	 -0.918696 
H 	 5.664750 	 -5.097532 	 -0.728544 
H 	 5.020669 	 -1.085249 	 -6.738832 
H 	 4.665293 	 -2.046570 	 7.005607 
H 	 7.173670 	 5.770089 	 -5.181528 
H 	 -7.191445 	 6.441128 	 -3.911370 
H 	 -6.530378 	 -4.041559 	 2.684294 
H 	 6.893517 	 -3.715250 	 2.827109 
H 	 3.442766 	 -4.213240 	 4.512107 
H 	 2.797452 	 -2.811430 	 4.479723 
H 	 -5.928076 	 -4.668469 	 6.829457 
H 	 -5.643488 	 -4.184239 	 5.264479 
H 	 -0.554689 	 -3.174504 	 -7.403322 
H 	 0.733726 	 -3.933126 	 -7.316234 
H 	 -0.376650 	 -6.581802 	 -0.635582 
H 	 -0.376166 	 -6.890045 	 -2.139004 
H 	 4.006632 	 6.875268 	 -3.899571 
H 	 3.012768 	 5.618883 	 -4.011739 
H 	 -1.353505 	 3.660103 	 -5.863650 
H 	 -0.142506 	 3.159471 	 -5.035280 
H 	 3.400800 	 -5.846659 	 0.201134 
H 	 3.983653 	 -7.226362 	 0.394570 
H 	 -5.404168 	 4.434623 	 0.614907 
H 	 -5.090701 	 3.587693 	 1.636489 
H 	 6.111837 	 0.250194 	 -4.012810 
H 	 5.556128 	 0.480327 	 -5.472687 
H 	 -0.490244 	 5.950301 	 -2.443619 
H 	 -1.377502 	 6.386910 	 -3.667593 
H 	 1.571454 	 -1.972723 	 6.445517 
H 	 0.444795 	 -1.334100 	 5.448865 
H 	 -6.797826 	 2.321276 	 -4.593446 
H 	 -5.652983 	 1.685369 	 -5.286472 
H 	 -4.254350 	 3.875625 	 -3.845069 
H 	 -5.617591 	 3.914733 	 -4.445669 
H 	 -0.577377 	 -5.336324 	 5.263732 
H 	 -1.958580 	 -5.697225 	 3.748479 
H 	 -5.887875 	 6.298305 	 4.650538 
H 	 -5.815822 	 -7.309712 	 3.832485 
H 	 -3.585923 	 -0.705912 	 2.717715 
H 	 -5.062278 	 -0.801340 	 3.009778 
H 	 2.155355 	 3.020789 	 -4.983859 
H 	 1.393583 	 4.387219 	 -5.383989 
H 	 3.404759 	 -6.532736 	 5.819078 
H 	 4.654567 	 -6.081185 	 6.530347 
H 	 1.944828 	 5.267253 	 5.122433 
H 	 0.704241 	 4.225435 	 5.269436 
H 	 -0.015751 	 -4.940286 	 -4.459262 
H 	 -0.017387 	 -3.523643 	 -5.175677 
H 	 4.197117 	 2.487309 	 -1.697409 
H 	 2.947412 	 1.776832 	 -1.182190 
H 	 7.266977 	 -1.923801 	 -7.166730 
H 	 -6.202370 	 -2.652705 	 -6.852010 
H 	 2.060531 	 0.665784 	 7.461508 
H 	 2.510583 	 1.806209 	 6.527380 
H 	 1.553377 	 -1.591993 	 -6.173030 
H 	 2.278303 	 -0.635555 	 -5.193533 
H 	 0.831549 	 -6.759702 	 -5.766336 
H 	 0.361075 	 -7.345559 	 -4.428947 
H 	 -1.891437 	 4.256500 	 1.938983 
H 	 -1.608982 	 2.903843 	 1.320486 
H 	 1.763757 	 6.907281 	 0.340225 
H 	 0.824325 	 6.204574 	 1.251173 
H 	 5.476558 	 1.727009 	 7.455841 
H 	 4.212653 	 1.996799 	 -6.551807 
H 	 -2.871903 	 5.116287 	 -6.177926 
H 	 -2.344874 	 5.073477 	 7.316675 
H 	 -3.605533 	 1.034948 	 -6.860846 
H 	 -3.527565 	 0.091238 	 -5.556423 
H 	 -2.574176 	 -7.103825 	 1.446282 
H 	 -1.034242 	 -7.147630 	 1.824499 
H 	 -0.820943 	 1.147867 	 2.278511 
H 	 -1.410797 	 0.088774 	 1.273894 
H 	 -6.083342 	 -7.093826 	 1.535748 
H 	 -7.341903 	 -6.056416 	 1.500780 
H 	 -7.278350 	 1.643554 	 -6.748909 
H 	 -6.370648 	 0.454016 	 -7.159743 
H 	 -2.791202 	 -3.658425 	 5.747620 
H 	 -2.228264 	 -2.247348 	 5.899882 
H 	 -4.310099 	 1.709568 	 3.675886 
H 	 -3.640393 	 3.183573 	 3.860880 
H 	 5.237970 	 4.591469 	 -2.979499 
H 	 6.641560 	 4.319464 	 -2.373761 
H 	 -4.048531 	 -5.214881 	 -3.333967 
H 	 -5.388409 	 -5.471516 	 -2.733664 
H 	 1.859331 	 -1.933575 	 -0.972180 
H 	 1.565942 	 -1.355604 	 0.493395 
H 	 -3.541842 	 -4.303154 	 0.323904 
H 	 -4.734835 	 -4.074893 	 1.314119 
H 	 -3.409728 	 -1.803698 	 0.151409 
H 	 -4.774187 	 -2.109481 	 -0.548245 
H 	 3.017813 	 -6.546081 	 3.242638 
H 	 1.977158 	 -5.505439 	 2.643044 
H 	 3.141852 	 -4.274445 	 7.044525 
H 	 3.482291 	 -3.548016 	 -6.429210 
H 	 -7.358286 	 3.987274 	 2.257591 
H 	 7.126806 	 3.218377 	 3.371289 
H 	 -1.071075 	 -2.030593 	 2.091240 
H 	 -0.967451 	 -2.768609 	 0.692981 
H 	 -2.752707 	 6.996333 	 6.032435 
H 	 -1.388081 	 6.261958 	 5.755266 
H 	 6.212209 	 -6.691784 	 -4.530177 
H 	 5.293966 	 -6.092063 	 -3.463447 
H 	 -4.403582 	 7.203123 	 0.259226 
H 	 -4.530180 	 6.414206 	 1.690517 
H 	 -3.393394 	 -0.233667 	 -2.864834 
H 	 -3.125842 	 0.202746 	 -1.405807 
H 	 -6.991906 	 -4.968740 	 -1.717440 
H 	 -5.696598 	 -4.534808 	 -0.990241 
H 	 5.898269 	 -7.250876 	 3.295559 
H 	 4.968171 	 6.443825 	 2.874796 
H 	 1.169724 	 2.525307 	 -0.634428 
H 	 1.006614 	 1.048957 	 -0.628647 
H 	 4.022446 	 6.336254 	 6.255772 
H 	 4.065028 	 6.572188 	 4.653831 
H 	 4.395246 	 3.236537 	 4.727034 
H 	 4.614141 	 1.849559 	 5.339425 
H 	 5.652628 	 6.982156 	 -7.140151 
H 	 4.685093 	 6.261626 	 -6.154301 
H 	 0.212979 	 -2.848907 	 4.220050 
H 	 -1.148679 	 -3.559620 	 4.245431 
H 	 2.805206 	 4.242999 	 3.398855 
H 	 4.014449 	 4.251029 	 2.354224 
H 	 3.286541 	 -3.633349 	 -1.098864 
H 	 4.059611 	 -3.337790 	 0.243650 
H 	 -3.396617 	 -2.357250 	 -3.975664 
H 	 -4.638358 	 -1.524817 	 -3.892125 
H 	 7.395231 	 4.940761 	 5.738118 
H 	 6.963647 	 5.351353 	 4.239283 
H 	 4.188212 	 -2.849894 	 2.622155 
H 	 4.726456 	 -1.657787 	 1.662735 
H 	 1.438385 	 2.445457 	 2.124810 
H 	 0.605731 	 2.905870 	 3.324709 
H 	 4.409164 	 3.823037 	 0.150259 
H 	 3.358840 	 4.584595 	 -0.611071 
H 	 1.028996 	 7.415812 	 3.099112 
H 	 0.444243 	 6.003238 	 3.536209 
H 	 -4.015798 	 6.038417 	 -4.434673 
H 	 -3.216504 	 7.313361 	 -5.014861 
H 	 -2.204838 	 4.414902 	 -1.836627 
H 	 -1.681150 	 4.727294 	 -0.415847 
H 	 -2.692613 	 -3.571726 	 -1.740958 
H 	 -1.707634 	 -3.688732 	 -3.021548 
H 	 -3.218040 	 1.369950 	 1.215719 
H 	 -3.491791 	 1.503155 	 -0.274161 
H 	 -1.509655 	 -5.037798 	 0.629258 
H 	 -1.270144 	 -4.795794 	 -0.890586 
H 	 -4.207526 	 5.536372 	 3.407423 
H 	 -2.984774 	 5.470450 	 4.438635 
H 	 1.079577 	 -5.359070 	 5.176884 
H 	 -3.003313 	 -5.951105 	 -6.840116 
H 	 -6.127411 	 1.357598 	 -0.109946 
H 	 -6.838755 	 -0.039245 	 0.129430 
H 	 4.812561 	 1.661385 	 1.720672 
H 	 3.629639 	 1.447152 	 0.732721 
H 	 3.054046 	 -6.636538 	 -2.152614 
H 	 2.269111 	 -6.471639 	 -3.590652 
H 	 -1.121365 	 0.121081 	 6.537831 
H 	 -1.297134 	 0.234830 	 4.957116 
H 	 -2.065666 	 -5.411330 	 -5.688360 
O 	 7.155271 	 -0.113054 	 5.072696 
O 	 4.061677 	 -3.825383 	 -5.019613 
O 	 -6.038740 	 -0.951404 	 -3.015717 
O 	 5.182992 	 -0.049038 	 3.148603 
O 	 -6.799909 	 -1.848167 	 0.009374 
O 	 6.124503 	 -2.478182 	 -1.984194 
O 	 -4.429192 	 -4.128399 	 3.486305 
O 	 -6.771253 	 6.169862 	 -2.045890 
O 	 -4.550930 	 -2.784449 	 -6.677913 
O 	 -5.506412 	 3.711158 	 -1.057407 
O 	 2.724955 	 0.685258 	 4.487605 
O 	 -4.108695 	 6.944514 	 -1.357995 
O 	 1.505293 	 4.157987 	 -1.283271 
O 	 6.199375 	 6.650923 	 0.107818 
O 	 -0.737995 	 0.083158 	 -6.225597 
O 	 6.102257 	 0.201291 	 -1.827502 
O 	 2.044814 	 -2.839985 	 -2.629611 
O 	 -6.246826 	 -5.652331 	 -5.887435 
O 	 -3.409351 	 -6.516517 	 6.308358 
O 	 -0.108856 	 7.518691 	 -7.353021 
O 	 -2.891143 	 2.040163 	 6.679035 
O 	 1.050819 	 4.818795 	 -7.332983 
O 	 6.462863 	 -3.067628 	 4.738587 
O 	 -6.100612 	 1.083536 	 3.091621 
O 	 1.004836 	 -4.250811 	 1.593272 
O 	 -0.014907 	 0.684769 	 -2.408219 
O 	 -2.734742 	 3.243400 	 -3.055457 
O 	 -0.124038 	 2.302748 	 5.900853 
O 	 7.151408 	 3.697301 	 -5.309193 
O 	 6.184213 	 -5.993569 	 7.339727 
O 	 3.129610 	 -0.473850 	 -3.493347 
O 	 6.572341 	 -5.513388 	 -0.769618 
O 	 5.237054 	 -1.274633 	 7.238821 
O 	 -7.438474 	 6.618296 	 -4.808729 
O 	 -7.296245 	 -3.881838 	 2.137631 
O 	 3.588457 	 -3.322601 	 4.310093 
O 	 -6.305444 	 -4.553567 	 5.899887 
O 	 0.254445 	 -3.233285 	 -6.837701 
O 	 0.005725 	 -6.261867 	 -1.443356 
O 	 3.968008 	 5.888133 	 -3.969925 
O 	 -1.052434 	 2.904523 	 -5.266161 
O 	 3.213545 	 -6.805545 	 0.060833 
O 	 -5.461243 	 4.473431 	 1.580147 
O 	 5.672736 	 -0.204282 	 -4.771008 
O 	 -0.445969 	 6.424389 	 -3.323259 
O 	 1.293870 	 -1.845686 	 5.558584 
O 	 -5.992283 	 1.806492 	 -4.398090 
O 	 -4.951485 	 4.535723 	 -4.086884 
O 	 -2.103939 	 -5.234840 	 4.598925 
O 	 -5.288590 	 7.037520 	 4.407671 
O 	 -4.288254 	 -1.378524 	 2.823403 
O 	 1.744799 	 3.878439 	 -4.610803 
O 	 3.906004 	 -5.737849 	 5.926545 
O 	 1.255830 	 4.776435 	 4.662260 
O 	 -0.201177 	 -3.983679 	 -4.271791 
O 	 3.656018 	 1.723086 	 -1.851495 
O 	 -7.165506 	 -2.486789 	 -6.596520 
O 	 2.105949 	 1.637151 	 7.403694 
O 	 2.000975 	 -0.744285 	 -6.118422 
O 	 0.874077 	 -6.585183 	 -4.801505 
O 	 -1.452526 	 3.849975 	 1.181145 
O 	 1.081714 	 6.180347 	 0.307198 
O 	 5.181421 	 2.078734 	 -6.582876 
O 	 -2.590691 	 4.481457 	 -6.836529 
O 	 -4.138883 	 0.618011 	 -6.159398 
O 	 -1.776702 	 -6.528024 	 1.658227 
O 	 -1.651261 	 0.754208 	 1.935656 
O 	 -7.035685 	 -6.972956 	 1.726688 
O 	 -6.964467 	 1.136818 	 7.353371 
O 	 -2.534665 	 -3.005467 	 6.439077 
O 	 -3.509467 	 2.211362 	 4.010901 
O 	 5.943457 	 3.869586 	 -2.941121 
O 	 -4.698414 	 -5.948413 	 -3.335725 
O 	 1.836416 	 -1.130115 	 -0.407557 
O 	 -4.488702 	 -4.143777 	 0.348746 
O 	 -4.003529 	 -1.487580 	 -0.546386 
O 	 2.121107 	 -6.182266 	 3.354129 
O 	 3.204755 	 -3.364539 	 -7.418879 
O 	 6.802039 	 4.035664 	 2.871732 
O 	 -1.003973 	 -1.846676 	 1.094895 
O 	 -2.356933 	 6.089554 	 5.786389 
O 	 5.709994 	 -5.866843 	 -4.291119 
O 	 -4.306381 	 7.286162 	 1.273496 
O 	 -3.263484 	 0.536301 	 -2.298672 
O 	 -6.183041 	 -4.414378 	 -1.787950 
O 	 4.930879 	 7.408402 	 3.048831 
O 	 1.517659 	 1.713664 	 -0.172878 
O 	 3.496315 	 6.401430 	 5.416756 
O 	 4.964573 	 2.777051 	 5.398985 
O 	 5.059278 	 6.216804 	 -7.036052 
O 	 -0.583225 	 -2.999181 	 3.686988 
O 	 3.711374 	 4.526476 	 3.250124 
O 	 4.034802 	 -3.925467 	 -0.539881 
O 	 -3.801885 	 -1.514606 	 -4.310600 
O 	 7.391696 	 5.704205 	 5.107331 
O 	 4.565658 	 -2.592544 	 1.720346 
O 	 0.956858 	 2.048840 	 2.916900 
O 	 4.281017 	 4.689952 	 -0.294656 
O 	 0.351665 	 6.716808 	 2.874221 
O 	 -3.124292 	 6.386818 	 -4.691855 
O 	 -1.977737 	 5.188444 	 -1.221969 
O 	 -2.683660 	 -3.631911 	 -2.706910 
O 	 -3.862230 	 1.637559 	 0.584817 
O 	 -1.630113 	 -4.363442 	 -0.094075 
O 	 -3.540584 	 4.915909 	 3.785165 
O 	 0.322145 	 -5.347281 	 5.785993 
O 	 -6.985877 	 0.943861 	 0.078104 
O 	 4.260674 	 2.083687 	 1.035786 
O 	 3.146126 	 -6.499474 	 -3.146731 
O 	 -1.153972 	 -0.387676 	 5.692677 
O 	 -2.409004 	 -6.215048 	 -6.066459 
K 	 7.329338 	 -3.465769 	 -4.299206 
