333
conformation = 39
H 	 7.244441 	 -1.018944 	 5.281648 
H 	 7.113818 	 0.400737 	 6.026985 
H 	 3.688525 	 -3.995548 	 -4.103342 
H 	 4.846020 	 -4.461899 	 -4.942057 
H 	 -5.871299 	 -0.989522 	 -2.066660 
H 	 -6.174601 	 0.034060 	 -3.179017 
H 	 4.520767 	 0.196981 	 3.836534 
H 	 6.070164 	 -0.031604 	 3.701917 
H 	 -6.743417 	 -2.308003 	 0.934173 
H 	 -7.288981 	 -2.279444 	 -0.549094 
H 	 5.383710 	 -2.848576 	 -1.521901 
H 	 5.952671 	 -1.482442 	 -1.778556 
H 	 -3.633494 	 -4.577600 	 4.164016 
H 	 -4.157945 	 -3.206879 	 3.596489 
H 	 -7.295027 	 6.200484 	 -1.187615 
H 	 -5.761523 	 6.531308 	 -1.700175 
H 	 -3.831148 	 -2.579569 	 -7.293050 
H 	 -4.238991 	 -1.994954 	 -5.950287 
H 	 -5.789003 	 4.534693 	 -1.584144 
H 	 -4.519361 	 3.650301 	 -1.299729 
H 	 2.198293 	 -0.082448 	 4.917637 
H 	 2.137926 	 1.197061 	 4.078473 
H 	 -3.164381 	 6.438583 	 -1.281511 
H 	 -4.042435 	 -7.237727 	 -2.009729 
H 	 1.330915 	 4.370384 	 -2.155569 
H 	 1.425597 	 5.016252 	 -0.639590 
H 	 5.684223 	 6.138264 	 0.523044 
H 	 6.957565 	 7.136631 	 0.793406 
H 	 0.245660 	 -0.109188 	 -6.226061 
H 	 -0.719802 	 1.066030 	 -5.765696 
H 	 5.355747 	 0.898420 	 -1.631039 
H 	 6.923373 	 0.771494 	 -1.298027 
H 	 2.462818 	 -1.914703 	 -2.830472 
H 	 1.348060 	 -3.162382 	 -2.982070 
H 	 -5.360331 	 -5.367671 	 -5.231259 
H 	 -6.293871 	 -6.552701 	 -5.778913 
H 	 -2.832438 	 -6.009298 	 5.605695 
H 	 -4.242742 	 -6.808991 	 6.177378 
H 	 -0.817607 	 -7.063509 	 -6.927919 
H 	 0.279327 	 -6.712288 	 6.866137 
H 	 -3.176004 	 2.018258 	 5.928036 
H 	 -2.938906 	 2.940497 	 7.199433 
H 	 0.542024 	 5.650954 	 -7.265141 
H 	 0.541432 	 4.074280 	 7.495942 
H 	 7.006423 	 -3.683926 	 5.538084 
H 	 5.597762 	 -3.061620 	 4.840321 
H 	 -6.516731 	 0.855100 	 2.436130 
H 	 -6.525532 	 0.694606 	 3.990593 
H 	 0.670875 	 -4.287625 	 0.744865 
H 	 0.444496 	 -3.816723 	 2.217464 
H 	 -0.046959 	 -0.166653 	 -1.956579 
H 	 -0.837384 	 0.772102 	 -2.763930 
H 	 -1.984912 	 3.292815 	 -3.689766 
H 	 -2.713377 	 2.370223 	 -2.849978 
H 	 0.374746 	 2.040492 	 6.805770 
H 	 -0.990484 	 2.415822 	 6.295287 
H 	 6.459674 	 3.583560 	 -5.838666 
H 	 6.747369 	 3.633112 	 -4.307429 
H 	 7.045646 	 -6.019560 	 6.765543 
H 	 6.412511 	 -5.245113 	 -6.887493 
H 	 3.264441 	 0.380279 	 -2.759044 
H 	 4.157116 	 -0.356535 	 -3.861374 
H 	 6.398434 	 -6.422221 	 -0.525902 
H 	 5.912068 	 -4.954973 	 -0.444928 
H 	 5.212290 	 -1.269837 	 -6.609056 
H 	 4.644172 	 -2.076394 	 7.182213 
H 	 7.031279 	 5.907374 	 -5.202942 
H 	 -7.158635 	 6.332568 	 -3.868101 
H 	 -6.300827 	 -4.069841 	 2.605286 
H 	 7.245292 	 -3.626813 	 2.995196 
H 	 3.547213 	 -4.163395 	 4.823089 
H 	 2.858542 	 -2.794830 	 4.585508 
H 	 -5.653850 	 -4.772476 	 6.706787 
H 	 -5.551621 	 -4.164476 	 5.354303 
H 	 -0.485689 	 -2.941088 	 -7.194971 
H 	 0.705241 	 -3.963301 	 -7.304477 
H 	 0.056860 	 -6.833530 	 -0.635228 
H 	 -0.200063 	 -6.773082 	 -2.081388 
H 	 3.857514 	 6.740410 	 -3.531871 
H 	 3.095129 	 5.534781 	 -4.012433 
H 	 -1.158689 	 3.710511 	 -5.679804 
H 	 0.039709 	 2.981775 	 -4.843496 
H 	 3.545873 	 -5.852757 	 0.197207 
H 	 4.152702 	 -7.295188 	 0.447170 
H 	 -5.312504 	 4.338496 	 0.692699 
H 	 -5.002932 	 3.614094 	 2.114685 
H 	 6.266430 	 0.237927 	 -3.828364 
H 	 5.690563 	 0.684426 	 -5.226705 
H 	 -0.634283 	 6.180218 	 -2.395897 
H 	 -1.370227 	 6.487726 	 -3.676976 
H 	 1.577617 	 -2.073069 	 6.532773 
H 	 0.562117 	 -1.286704 	 5.721511 
H 	 -6.610815 	 2.421577 	 -4.658484 
H 	 -5.289411 	 1.579219 	 -4.890970 
H 	 -4.106548 	 3.946749 	 -3.934195 
H 	 -5.636629 	 4.154343 	 -4.304943 
H 	 -0.429280 	 -5.327220 	 5.249089 
H 	 -1.973958 	 -5.572828 	 3.783429 
H 	 -5.933981 	 6.522039 	 4.603547 
H 	 -5.394136 	 -7.183849 	 3.805530 
H 	 -3.466915 	 -0.679775 	 2.785103 
H 	 -4.992831 	 -0.704425 	 2.789171 
H 	 2.254959 	 3.042416 	 -4.688820 
H 	 1.691683 	 4.281482 	 -5.463024 
H 	 3.441146 	 -6.567929 	 5.759334 
H 	 4.653979 	 -5.958274 	 6.667769 
H 	 2.039155 	 5.243548 	 5.293178 
H 	 0.957672 	 4.234584 	 5.357168 
H 	 0.254210 	 -4.876297 	 -4.397488 
H 	 0.154502 	 -3.454921 	 -4.909085 
H 	 4.180166 	 2.633616 	 -1.839552 
H 	 3.027295 	 1.782326 	 -1.248125 
H 	 7.345463 	 -1.780376 	 -7.107525 
H 	 -6.231938 	 -2.591567 	 -6.879759 
H 	 2.183589 	 0.728576 	 -7.194269 
H 	 2.643434 	 1.790861 	 6.692647 
H 	 1.708422 	 -1.562091 	 -6.206903 
H 	 2.355697 	 -0.650787 	 -5.125036 
H 	 0.790671 	 -6.799898 	 -5.644748 
H 	 0.561840 	 -7.152963 	 -4.153834 
H 	 -1.592111 	 4.381148 	 2.128922 
H 	 -1.708427 	 3.040036 	 1.285488 
H 	 1.906253 	 6.931542 	 0.328086 
H 	 0.816082 	 6.224262 	 1.312634 
H 	 5.325312 	 1.976766 	 7.474328 
H 	 4.313574 	 1.974232 	 -6.298168 
H 	 -3.011248 	 5.135135 	 -6.101716 
H 	 -2.522962 	 5.125872 	 7.335130 
H 	 -3.475416 	 0.614210 	 -6.790372 
H 	 -3.511041 	 0.120524 	 -5.318114 
H 	 -2.528093 	 -6.949220 	 1.740246 
H 	 -1.009006 	 -7.235674 	 1.813285 
H 	 -0.793636 	 1.138165 	 2.491109 
H 	 -1.236448 	 -0.120818 	 1.706972 
H 	 -6.000650 	 -6.937842 	 1.775494 
H 	 -7.074856 	 -5.870178 	 1.702538 
H 	 -7.153228 	 1.700449 	 -6.700820 
H 	 -6.142999 	 0.607638 	 -7.024040 
H 	 -2.433032 	 -3.737910 	 5.910438 
H 	 -2.211303 	 -2.177072 	 6.001536 
H 	 -4.220018 	 1.792286 	 3.788965 
H 	 -3.499641 	 3.210792 	 3.793961 
H 	 5.338582 	 4.690369 	 -2.929446 
H 	 6.747000 	 4.247263 	 -2.415074 
H 	 -3.731028 	 -5.420799 	 -3.177440 
H 	 -5.223213 	 -5.339072 	 -2.708366 
H 	 1.891524 	 -1.896640 	 -0.762944 
H 	 1.521534 	 -1.309506 	 0.522119 
H 	 -3.442327 	 -4.139026 	 0.445710 
H 	 -4.605889 	 -3.945477 	 1.380082 
H 	 -3.430566 	 -1.736457 	 0.347150 
H 	 -4.779696 	 -1.899972 	 -0.208284 
H 	 3.200619 	 -6.399124 	 3.223781 
H 	 1.954918 	 -5.663755 	 2.616104 
H 	 2.976447 	 -4.059746 	 7.084812 
H 	 3.644421 	 -3.650841 	 -6.417723 
H 	 -7.357967 	 4.044382 	 2.314097 
H 	 6.899089 	 3.408133 	 3.650799 
H 	 -1.016748 	 -2.148968 	 2.078496 
H 	 -1.027205 	 -2.570231 	 0.599715 
H 	 -2.684606 	 7.022976 	 6.067760 
H 	 -1.304939 	 6.397154 	 6.106205 
H 	 6.344327 	 -6.687367 	 -4.565578 
H 	 5.290303 	 -6.105680 	 -3.509449 
H 	 -4.194122 	 7.217639 	 0.265085 
H 	 -4.590692 	 6.402982 	 1.550320 
H 	 -3.144590 	 -0.155976 	 -2.833842 
H 	 -3.427956 	 -0.006529 	 -1.421961 
H 	 -6.922253 	 -4.597457 	 -1.289409 
H 	 -5.529728 	 -4.217271 	 -0.898253 
H 	 5.987243 	 -7.135239 	 3.042566 
H 	 5.055767 	 6.534065 	 2.958467 
H 	 1.436567 	 2.742962 	 -0.395619 
H 	 1.132137 	 1.105943 	 -0.457819 
H 	 4.124146 	 6.211790 	 6.403218 
H 	 4.435653 	 6.651339 	 5.031185 
H 	 4.529741 	 3.468448 	 4.821891 
H 	 4.801988 	 1.989674 	 5.221885 
H 	 5.507861 	 7.128731 	 -6.987407 
H 	 4.491699 	 6.342788 	 -6.178557 
H 	 0.304053 	 -2.656008 	 4.198544 
H 	 -0.842028 	 -3.717638 	 4.329262 
H 	 2.801426 	 4.533825 	 3.496476 
H 	 3.988333 	 4.152302 	 2.600406 
H 	 3.505423 	 -3.513835 	 -1.022303 
H 	 4.230134 	 -3.299202 	 0.384416 
H 	 -3.278259 	 -2.205055 	 -3.695356 
H 	 -4.379814 	 -1.147682 	 -3.884885 
H 	 7.257923 	 4.955728 	 5.789788 
H 	 7.128526 	 5.409936 	 4.355350 
H 	 4.206444 	 -2.842242 	 2.611746 
H 	 4.626823 	 -1.569689 	 2.067776 
H 	 1.393613 	 2.210186 	 2.053290 
H 	 0.713650 	 2.949398 	 3.344670 
H 	 4.486360 	 3.945594 	 0.395563 
H 	 3.500456 	 4.744464 	 -0.556356 
H 	 1.091588 	 7.444661 	 3.119684 
H 	 0.726226 	 6.049330 	 3.669217 
H 	 -3.934823 	 5.969017 	 -4.528220 
H 	 -3.167903 	 7.351666 	 -4.989707 
H 	 -2.094532 	 4.508767 	 -1.779065 
H 	 -1.650106 	 4.763917 	 -0.231162 
H 	 -2.512976 	 -3.395611 	 -1.603602 
H 	 -1.686049 	 -3.630578 	 -2.932097 
H 	 -2.980118 	 1.320875 	 1.292955 
H 	 -3.378336 	 1.628471 	 -0.140141 
H 	 -1.537383 	 -5.083238 	 0.703177 
H 	 -1.282920 	 -4.891322 	 -0.763039 
H 	 -4.192943 	 5.523847 	 3.730479 
H 	 -2.942242 	 5.345140 	 4.621374 
H 	 1.105471 	 -4.994208 	 5.098605 
H 	 -2.923988 	 -5.976981 	 -6.741807 
H 	 -6.082135 	 1.498403 	 0.048216 
H 	 -6.560267 	 0.012987 	 0.197243 
H 	 4.714800 	 1.352632 	 1.765110 
H 	 3.548839 	 1.700162 	 0.790615 
H 	 2.793515 	 -6.481512 	 -2.162056 
H 	 2.436438 	 -6.491974 	 -3.739057 
H 	 -1.137186 	 0.237923 	 6.615050 
H 	 -1.186080 	 0.395502 	 5.117294 
H 	 -2.149788 	 -5.286577 	 -5.524803 
O 	 7.246717 	 -0.037165 	 5.167836 
O 	 4.172426 	 -3.738241 	 -4.889950 
O 	 -5.891084 	 -0.881441 	 -3.051312 
O 	 5.222621 	 -0.037321 	 3.167303 
O 	 -6.763239 	 -1.751842 	 0.123701 
O 	 6.218340 	 -2.420147 	 -1.899629 
O 	 -4.373141 	 -4.168549 	 3.595250 
O 	 -6.672592 	 6.183910 	 -1.935791 
O 	 -4.488518 	 -2.756133 	 -6.583226 
O 	 -5.448547 	 3.816228 	 -1.026369 
O 	 2.788274 	 0.636919 	 4.589228 
O 	 -4.014919 	 6.972440 	 -1.298696 
O 	 1.638623 	 4.201812 	 -1.219200 
O 	 6.287988 	 6.781883 	 0.142648 
O 	 -0.698323 	 0.186809 	 -6.220088 
O 	 6.160155 	 0.287379 	 -1.717624 
O 	 2.133829 	 -2.824154 	 -2.522552 
O 	 -6.130828 	 -5.578915 	 -5.818791 
O 	 -3.309670 	 -6.502450 	 6.476647 
O 	 0.082418 	 7.563928 	 -7.229468 
O 	 -2.862734 	 2.039805 	 6.852525 
O 	 1.139943 	 4.868735 	 -7.156542 
O 	 6.577354 	 -3.025693 	 4.866642 
O 	 -5.980911 	 1.097415 	 3.237859 
O 	 1.152682 	 -4.219680 	 1.597293 
O 	 0.034933 	 0.704964 	 -2.321678 
O 	 -2.643805 	 3.317883 	 -2.978794 
O 	 -0.070027 	 2.283589 	 5.983798 
O 	 7.218267 	 3.672482 	 -5.229200 
O 	 6.250680 	 -5.914364 	 7.313523 
O 	 3.287529 	 -0.416462 	 -3.400123 
O 	 6.656905 	 -5.477581 	 -0.669926 
O 	 5.218542 	 -1.286973 	 7.316373 
O 	 -7.382295 	 6.632855 	 -4.754441 
O 	 -7.140926 	 -3.794031 	 2.196723 
O 	 3.690041 	 -3.247700 	 4.404535 
O 	 -6.218720 	 -4.487265 	 5.979873 
O 	 0.421912 	 -3.131935 	 -6.831970 
O 	 0.048300 	 -6.180818 	 -1.342891 
O 	 4.018226 	 5.838462 	 -3.891253 
O 	 -0.870291 	 2.900697 	 -5.134560 
O 	 3.338103 	 -6.847503 	 0.163191 
O 	 -5.364418 	 4.413274 	 1.667782 
O 	 5.789894 	 -0.103517 	 -4.637296 
O 	 -0.426868 	 6.496032 	 -3.291476 
O 	 1.407693 	 -1.825254 	 5.582670 
O 	 -5.915960 	 1.875191 	 -4.255250 
O 	 -4.813444 	 4.591583 	 -3.974446 
O 	 -2.037297 	 -5.192548 	 4.692465 
O 	 -5.177162 	 7.084385 	 4.521027 
O 	 -4.227419 	 -1.282866 	 2.882514 
O 	 1.859759 	 3.932475 	 -4.552592 
O 	 3.960737 	 -5.747499 	 6.012534 
O 	 1.393818 	 4.823818 	 4.741685 
O 	 -0.068142 	 -3.983824 	 -4.146675 
O 	 3.803535 	 1.706129 	 -1.780066 
O 	 -7.110961 	 -2.388906 	 -6.455490 
O 	 2.119173 	 1.673881 	 7.490174 
O 	 2.094335 	 -0.678743 	 -6.047755 
O 	 1.020197 	 -6.511062 	 -4.702489 
O 	 -1.335051 	 3.938567 	 1.316112 
O 	 1.162973 	 6.233468 	 0.400765 
O 	 5.261780 	 2.079637 	 -6.436119 
O 	 -2.492542 	 4.590728 	 -6.718361 
O 	 -4.028635 	 0.612272 	 -5.977098 
O 	 -1.641788 	 -6.518212 	 1.754098 
O 	 -1.563627 	 0.774244 	 1.994644 
O 	 -6.986122 	 -6.834174 	 1.849818 
O 	 -6.848803 	 1.160710 	 7.481689 
O 	 -2.374592 	 -2.976427 	 6.497694 
O 	 -3.383217 	 2.244956 	 4.073628 
O 	 5.991110 	 3.918648 	 -2.869791 
O 	 -4.546823 	 -5.920550 	 -3.219268 
O 	 1.873653 	 -1.047377 	 -0.316557 
O 	 -4.403693 	 -4.077168 	 0.443075 
O 	 -3.913878 	 -1.468314 	 -0.461178 
O 	 2.217018 	 -6.180038 	 3.392752 
O 	 3.304310 	 -3.284075 	 -7.294774 
O 	 6.841445 	 4.063278 	 2.987546 
O 	 -0.946628 	 -1.766691 	 1.168422 
O 	 -2.213513 	 6.159483 	 5.858028 
O 	 5.824574 	 -5.901345 	 -4.298206 
O 	 -4.264877 	 7.317996 	 1.307648 
O 	 -3.170265 	 0.549844 	 -2.202734 
O 	 -6.051277 	 -4.378388 	 -1.715837 
O 	 5.069756 	 7.482677 	 3.168757 
O 	 1.644913 	 1.810791 	 -0.027387 
O 	 3.640724 	 6.455399 	 5.563197 
O 	 4.991497 	 2.905725 	 5.471184 
O 	 5.111590 	 6.228791 	 -6.965707 
O 	 -0.479339 	 -2.995115 	 3.773965 
O 	 3.745778 	 4.694421 	 3.392441 
O 	 4.179397 	 -3.863380 	 -0.403786 
O 	 -3.615869 	 -1.536907 	 -4.299148 
O 	 -7.393856 	 5.736605 	 5.233307 
O 	 4.626824 	 -2.525004 	 1.784167 
O 	 0.981417 	 2.120457 	 2.950288 
O 	 4.392952 	 4.756425 	 -0.184392 
O 	 0.460481 	 6.697722 	 2.963196 
O 	 -3.069525 	 6.401496 	 -4.603611 
O 	 -1.823571 	 5.212880 	 -1.112129 
O 	 -2.617249 	 -3.582860 	 -2.562566 
O 	 -3.768367 	 1.648165 	 0.777395 
O 	 -1.556420 	 -4.367328 	 0.023260 
O 	 -3.390535 	 4.913906 	 3.842536 
O 	 0.458577 	 -5.283719 	 5.770622 
O 	 -6.873348 	 0.957624 	 0.157356 
O 	 4.370216 	 2.069885 	 1.177199 
O 	 3.228576 	 -6.451989 	 -3.064824 
O 	 -1.012009 	 -0.313490 	 5.748964 
O 	 -2.385691 	 -6.152499 	 -5.908382 
K 	 7.403355 	 -3.442632 	 -4.214545 
