333
conformation = 62
H 	 7.121045 	 -0.998232 	 5.097989 
H 	 7.337231 	 0.330436 	 6.071669 
H 	 3.613248 	 -3.953311 	 -4.041350 
H 	 4.727662 	 -4.559675 	 -4.882193 
H 	 -6.081870 	 -1.063020 	 -2.293014 
H 	 -6.025755 	 0.139619 	 -3.377472 
H 	 4.300362 	 0.085328 	 3.560586 
H 	 5.749750 	 -0.209509 	 3.789512 
H 	 -6.924633 	 -2.299397 	 0.944859 
H 	 -7.419799 	 -2.061863 	 -0.529557 
H 	 5.473090 	 -2.863262 	 -1.470847 
H 	 6.055425 	 -1.403064 	 -1.850364 
H 	 -3.557735 	 -4.501889 	 3.951657 
H 	 -4.435912 	 -3.257927 	 3.527240 
H 	 -7.210019 	 6.589971 	 -1.208131 
H 	 -5.775193 	 6.379157 	 -1.661285 
H 	 -3.772232 	 -2.884663 	 -7.225828 
H 	 -4.071641 	 -2.502002 	 -5.782668 
H 	 -5.839524 	 4.656234 	 -1.570301 
H 	 -4.630552 	 3.773064 	 -1.529922 
H 	 2.324926 	 -0.303207 	 4.848546 
H 	 2.198963 	 1.031695 	 3.967633 
H 	 -3.221041 	 6.459670 	 -1.553278 
H 	 -4.005321 	 -7.185499 	 -2.043301 
H 	 1.368076 	 4.284220 	 -2.142380 
H 	 1.234732 	 4.926545 	 -0.733037 
H 	 5.815847 	 6.032353 	 0.272566 
H 	 6.858522 	 7.081613 	 0.879886 
H 	 0.138227 	 -0.009094 	 -6.159004 
H 	 -0.830655 	 1.206245 	 -6.160420 
H 	 5.335932 	 0.734098 	 -1.330556 
H 	 6.852073 	 0.690383 	 -1.164476 
H 	 2.641635 	 -2.133337 	 -2.914799 
H 	 1.283838 	 -3.017540 	 -2.978886 
H 	 -5.297343 	 -5.281056 	 -5.388143 
H 	 -6.164019 	 -6.484549 	 -5.641995 
H 	 -2.792637 	 -5.901953 	 5.855609 
H 	 -4.202989 	 -6.534909 	 6.153102 
H 	 -0.651342 	 -6.897467 	 -6.878074 
H 	 0.494352 	 -6.724401 	 7.042845 
H 	 -3.254772 	 2.037799 	 5.955901 
H 	 -3.358363 	 2.711461 	 7.449249 
H 	 0.797913 	 5.775375 	 -7.113288 
H 	 0.459368 	 4.314806 	 7.469212 
H 	 6.970085 	 -3.712820 	 5.375017 
H 	 5.641916 	 -3.055748 	 4.950871 
H 	 -6.507539 	 1.396609 	 2.563478 
H 	 -6.607849 	 0.721173 	 3.996412 
H 	 0.584228 	 -4.663059 	 0.879323 
H 	 0.717407 	 -3.857980 	 2.207816 
H 	 -0.063677 	 -0.164697 	 -1.787221 
H 	 -0.972240 	 0.844082 	 -2.519775 
H 	 -1.872932 	 3.220811 	 -3.687671 
H 	 -2.897032 	 2.444869 	 -2.606218 
H 	 0.574110 	 1.884353 	 6.540573 
H 	 -0.992012 	 2.197739 	 6.494365 
H 	 6.360039 	 3.351774 	 -5.759665 
H 	 6.801210 	 3.630256 	 -4.349317 
H 	 7.087130 	 -6.018931 	 6.734897 
H 	 6.565091 	 -5.351839 	 -6.953801 
H 	 3.254078 	 0.325472 	 -2.867613 
H 	 4.263180 	 -0.414647 	 -3.847526 
H 	 6.299236 	 -6.317658 	 -0.318112 
H 	 5.887492 	 -4.777086 	 -0.426383 
H 	 5.259738 	 -1.295761 	 -6.621613 
H 	 4.412812 	 -2.047801 	 7.255300 
H 	 7.035893 	 5.841756 	 -5.191633 
H 	 -7.183008 	 6.276388 	 -3.902120 
H 	 -6.176584 	 -4.025514 	 2.548802 
H 	 7.332809 	 -3.307536 	 2.928341 
H 	 3.769162 	 -4.063403 	 4.951745 
H 	 2.988450 	 -2.670498 	 4.819945 
H 	 -5.626406 	 -4.695009 	 6.753576 
H 	 -5.650709 	 -4.490534 	 5.156459 
H 	 -0.450870 	 -2.745180 	 -7.070579 
H 	 0.539714 	 -3.850388 	 7.417433 
H 	 0.543065 	 -6.889514 	 -0.858310 
H 	 -0.228978 	 -6.472764 	 -2.240055 
H 	 3.548592 	 6.355219 	 -3.235734 
H 	 3.315883 	 5.020762 	 -4.002713 
H 	 -1.106191 	 3.447888 	 -5.739528 
H 	 0.055013 	 3.304974 	 -4.742861 
H 	 3.509344 	 -5.996163 	 0.009401 
H 	 4.265578 	 -7.309973 	 0.262962 
H 	 -5.492348 	 3.795463 	 0.796008 
H 	 -4.807698 	 3.747835 	 2.191227 
H 	 6.203062 	 0.101105 	 -3.698074 
H 	 5.993260 	 0.808152 	 -5.018396 
H 	 -0.851142 	 6.081021 	 -2.505575 
H 	 -1.320118 	 6.471925 	 -3.944887 
H 	 1.592516 	 -2.393667 	 6.278242 
H 	 0.612484 	 -1.291924 	 5.853209 
H 	 -6.386724 	 2.194042 	 -4.990553 
H 	 -5.033310 	 1.525601 	 -4.542217 
H 	 -4.249558 	 3.848385 	 -3.693999 
H 	 -5.590475 	 4.370158 	 -4.439498 
H 	 -0.456271 	 -5.329321 	 5.307495 
H 	 -1.973811 	 -5.708880 	 3.886367 
H 	 -6.089711 	 7.072367 	 4.915157 
H 	 -5.198178 	 -7.132224 	 3.848353 
H 	 -3.414220 	 -0.735133 	 2.871104 
H 	 -4.931119 	 -0.481937 	 2.777538 
H 	 2.556139 	 3.221735 	 -4.482089 
H 	 1.964734 	 4.091227 	 -5.568226 
H 	 3.669220 	 -6.729064 	 5.840158 
H 	 4.744800 	 -5.675304 	 6.328551 
H 	 2.152545 	 5.264288 	 5.327426 
H 	 1.113779 	 4.003941 	 5.259365 
H 	 0.523774 	 -4.821127 	 -4.234524 
H 	 -0.006228 	 -3.625522 	 -5.024789 
H 	 3.984109 	 2.560826 	 -2.167848 
H 	 3.116660 	 1.722768 	 -1.099095 
H 	 7.145319 	 -1.909517 	 -7.106975 
H 	 -6.269621 	 -2.329941 	 -6.808454 
H 	 2.225931 	 0.854315 	 -6.858026 
H 	 2.536543 	 1.515957 	 6.642559 
H 	 2.297251 	 -1.583308 	 -6.336218 
H 	 2.429825 	 -0.574221 	 -5.108137 
H 	 0.898893 	 -6.842196 	 -5.594129 
H 	 0.582852 	 -7.123009 	 -4.067923 
H 	 -1.811860 	 4.450387 	 2.113160 
H 	 -2.002093 	 3.299671 	 1.309321 
H 	 1.966774 	 6.770463 	 0.362265 
H 	 0.878579 	 6.170170 	 1.352097 
H 	 5.158153 	 2.397908 	 -7.293547 
H 	 4.224675 	 2.171828 	 -6.227783 
H 	 -2.859445 	 5.213206 	 -5.932517 
H 	 -2.582311 	 5.192928 	 7.363797 
H 	 -3.518183 	 0.849946 	 -6.647287 
H 	 -3.511639 	 -0.188295 	 -5.441644 
H 	 -2.563427 	 -6.843192 	 1.776032 
H 	 -1.060011 	 -7.280882 	 2.171400 
H 	 -0.920818 	 1.208311 	 2.556305 
H 	 -1.150141 	 -0.146925 	 1.743495 
H 	 -6.115323 	 -6.904224 	 1.522332 
H 	 -7.133522 	 -5.742683 	 1.677717 
H 	 -7.247241 	 1.700978 	 -6.646684 
H 	 -5.965164 	 0.842884 	 -6.996460 
H 	 -1.980011 	 -3.674809 	 5.826381 
H 	 -2.100989 	 -2.154619 	 5.917008 
H 	 -4.259890 	 1.955017 	 3.763259 
H 	 -3.477065 	 3.190307 	 4.097402 
H 	 5.380663 	 4.666691 	 -3.159120 
H 	 6.594507 	 4.171429 	 -2.169954 
H 	 -3.585338 	 -5.462296 	 -3.113798 
H 	 -5.069791 	 -5.432594 	 -2.558964 
H 	 1.755808 	 -1.773606 	 -0.951037 
H 	 1.231834 	 -1.308309 	 0.479259 
H 	 -3.481139 	 -4.163569 	 0.175827 
H 	 -4.360022 	 -4.038145 	 1.478742 
H 	 -3.422812 	 -1.339324 	 0.365746 
H 	 -4.860683 	 -1.502096 	 -0.196547 
H 	 3.128418 	 -6.403708 	 3.166790 
H 	 1.968590 	 -5.579310 	 2.565756 
H 	 3.403408 	 -4.082257 	 7.104023 
H 	 3.366904 	 -3.526934 	 -6.397873 
H 	 -7.207850 	 4.004794 	 2.683794 
H 	 6.593170 	 3.244045 	 3.569212 
H 	 -0.863880 	 -2.358327 	 1.924424 
H 	 -1.296421 	 -2.249586 	 0.391574 
H 	 -2.672179 	 6.977201 	 6.115101 
H 	 -1.185723 	 6.386904 	 6.084829 
H 	 6.427657 	 -6.809718 	 -4.470485 
H 	 5.123379 	 -6.321550 	 -3.870867 
H 	 -4.160697 	 7.453060 	 0.307178 
H 	 -4.346898 	 6.324029 	 1.346437 
H 	 -3.002889 	 0.205880 	 -3.142823 
H 	 -3.771849 	 -0.155219 	 -1.775699 
H 	 -6.720711 	 -4.760178 	 -1.128171 
H 	 -5.344254 	 -3.910218 	 -1.133142 
H 	 5.951356 	 -7.153268 	 2.685607 
H 	 4.870156 	 6.595714 	 2.965895 
H 	 1.422652 	 2.711706 	 -0.428598 
H 	 1.110756 	 1.242056 	 -0.368763 
H 	 3.987824 	 6.138417 	 6.555320 
H 	 4.390493 	 6.554846 	 4.981353 
H 	 4.624938 	 3.793185 	 4.924524 
H 	 4.795841 	 2.281812 	 4.768332 
H 	 5.380767 	 7.138086 	 -6.990203 
H 	 4.472022 	 6.082545 	 -6.211252 
H 	 0.137196 	 -2.714680 	 4.465612 
H 	 -0.902240 	 -3.883521 	 4.030115 
H 	 2.744986 	 4.835817 	 3.616952 
H 	 3.764276 	 3.952814 	 2.926214 
H 	 3.462800 	 -3.603663 	 -0.917769 
H 	 4.267006 	 -3.197079 	 0.374082 
H 	 -3.231830 	 -2.236648 	 -3.624511 
H 	 -4.489002 	 -1.349028 	 -3.984723 
H 	 7.188240 	 5.103028 	 5.959414 
H 	 7.305221 	 5.215409 	 4.449057 
H 	 4.201089 	 -3.102878 	 2.460893 
H 	 4.845442 	 -1.642912 	 2.214484 
H 	 0.878635 	 2.039511 	 1.904439 
H 	 0.909453 	 3.106162 	 3.019874 
H 	 4.472698 	 3.912227 	 0.291728 
H 	 3.541710 	 4.774957 	 -0.585717 
H 	 1.125426 	 7.331711 	 3.188831 
H 	 0.654686 	 5.946761 	 3.624174 
H 	 -3.924467 	 5.998935 	 -4.204912 
H 	 -3.314682 	 7.225595 	 -4.955382 
H 	 -2.060217 	 4.435696 	 -1.596708 
H 	 -1.658938 	 4.907114 	 -0.170175 
H 	 -2.634308 	 -3.080113 	 -1.701749 
H 	 -1.773639 	 -3.746113 	 -2.909609 
H 	 -2.966139 	 1.212205 	 1.360860 
H 	 -3.531000 	 1.735099 	 -0.032889 
H 	 -1.690473 	 -5.146479 	 0.762364 
H 	 -1.143818 	 -5.003266 	 -0.615373 
H 	 -4.110159 	 5.385242 	 3.940890 
H 	 -2.772680 	 5.119314 	 4.534047 
H 	 1.066198 	 -5.342317 	 4.871586 
H 	 -2.850491 	 -6.106603 	 -6.743890 
H 	 -6.012830 	 1.488815 	 0.130669 
H 	 -6.561859 	 0.014539 	 0.181459 
H 	 4.602690 	 1.146399 	 1.638932 
H 	 3.464612 	 1.825092 	 0.903480 
H 	 2.527190 	 -6.308989 	 -2.382592 
H 	 2.656673 	 -6.359426 	 -3.854451 
H 	 -1.043720 	 -0.107226 	 6.649349 
H 	 -0.949743 	 0.479326 	 5.136572 
H 	 -2.495105 	 -5.177005 	 -5.600065 
O 	 7.238946 	 -0.027578 	 5.142151 
O 	 4.224973 	 -3.706828 	 -4.805519 
O 	 -5.869118 	 -0.843618 	 -3.193093 
O 	 5.134135 	 -0.049151 	 3.067193 
O 	 -6.799748 	 -1.722790 	 0.151543 
O 	 6.190837 	 -2.401156 	 -1.901330 
O 	 -4.445238 	 -4.232911 	 3.639081 
O 	 -6.695036 	 6.124837 	 -1.930993 
O 	 -4.528194 	 -2.762781 	 -6.602909 
O 	 -5.480735 	 3.867422 	 -1.075774 
O 	 2.746325 	 0.548421 	 4.611911 
O 	 -4.030439 	 6.966481 	 -1.337491 
O 	 1.694646 	 4.230039 	 -1.255547 
O 	 6.301781 	 6.895225 	 0.065065 
O 	 -0.781372 	 0.255445 	 -6.344406 
O 	 6.119170 	 0.360241 	 -1.738414 
O 	 2.148901 	 -2.869257 	 -2.481802 
O 	 -6.093969 	 -5.543357 	 -5.863149 
O 	 -3.353348 	 -6.516457 	 6.545548 
O 	 0.168523 	 7.565173 	 -7.204202 
O 	 -2.922842 	 1.989001 	 6.914208 
O 	 1.118378 	 4.863444 	 -7.045888 
O 	 6.622687 	 -3.011491 	 4.880247 
O 	 -5.977266 	 1.038053 	 3.294179 
O 	 1.204476 	 -4.239039 	 1.488134 
O 	 -0.031267 	 0.666886 	 -2.345164 
O 	 -2.624638 	 3.318649 	 -3.009680 
O 	 -0.142864 	 2.311655 	 5.984131 
O 	 7.157226 	 3.616968 	 -5.247683 
O 	 6.240122 	 -5.889200 	 7.203158 
O 	 3.336644 	 -0.421128 	 -3.437478 
O 	 6.608883 	 -5.467980 	 -0.655709 
O 	 5.097072 	 -1.339526 	 7.315298 
O 	 -7.454072 	 6.646182 	 -4.811678 
O 	 -7.045527 	 -3.753839 	 2.191712 
O 	 3.685029 	 -3.237281 	 4.410240 
O 	 -6.219981 	 -4.480073 	 5.972881 
O 	 0.455912 	 -3.057629 	 -6.939099 
O 	 -0.017538 	 -6.180558 	 -1.325401 
O 	 3.956713 	 5.753262 	 -3.911095 
O 	 -0.773462 	 2.842868 	 -5.066261 
O 	 3.369274 	 -6.924903 	 0.163684 
O 	 -5.392963 	 4.308058 	 1.671076 
O 	 5.806987 	 -0.033855 	 -4.577671 
O 	 -0.573812 	 6.541741 	 -3.345887 
O 	 1.399134 	 -1.802583 	 5.518979 
O 	 -5.934774 	 1.874243 	 -4.166777 
O 	 -4.805728 	 4.637512 	 -3.963698 
O 	 -2.078366 	 -5.184073 	 4.698948 
O 	 -5.139186 	 7.094153 	 4.534673 
O 	 -4.256984 	 -1.227485 	 2.827638 
O 	 1.856065 	 3.928119 	 -4.597621 
O 	 3.816817 	 -5.750101 	 5.982090 
O 	 1.417026 	 4.822826 	 4.751426 
O 	 -0.034919 	 -4.019443 	 -4.080380 
O 	 3.855424 	 1.688159 	 -1.826627 
O 	 -7.186349 	 -2.305389 	 -6.448213 
O 	 2.059370 	 1.687577 	 7.504980 
O 	 2.048262 	 -0.676859 	 -6.054564 
O 	 1.063716 	 -6.480482 	 -4.688504 
O 	 -1.297237 	 3.994331 	 1.382644 
O 	 1.138104 	 6.289037 	 0.377237 
O 	 5.194892 	 2.016781 	 -6.398715 
O 	 -2.502806 	 4.662035 	 -6.709942 
O 	 -4.030177 	 0.544134 	 -5.866619 
O 	 -1.623469 	 -6.554302 	 1.772859 
O 	 -1.549229 	 0.722726 	 1.982639 
O 	 -7.016588 	 -6.696626 	 1.927597 
O 	 -6.819642 	 1.144874 	 7.538182 
O 	 -2.284751 	 -2.977239 	 6.466993 
O 	 -3.355608 	 2.204078 	 4.046093 
O 	 5.919768 	 3.923663 	 -2.881744 
O 	 -4.454214 	 -5.938966 	 -3.203563 
O 	 1.780947 	 -0.999646 	 -0.300389 
O 	 -4.425543 	 -4.054091 	 0.483806 
O 	 -3.925602 	 -1.503614 	 -0.450081 
O 	 2.221264 	 -6.207126 	 3.313090 
O 	 3.261534 	 -3.248494 	 -7.306686 
O 	 6.746250 	 4.085246 	 3.003459 
O 	 -1.008126 	 -1.746817 	 1.167635 
O 	 -2.116369 	 6.174324 	 5.882487 
O 	 5.859517 	 -5.986841 	 -4.427411 
O 	 -4.364295 	 7.289053 	 1.263976 
O 	 -3.152256 	 0.504850 	 -2.183572 
O 	 -6.035319 	 -4.345254 	 -1.728800 
O 	 5.119509 	 7.518365 	 3.194264 
O 	 1.691984 	 1.901373 	 0.071568 
O 	 3.696942 	 6.454704 	 5.668917 
O 	 4.909589 	 2.992514 	 5.444757 
O 	 5.040514 	 6.212108 	 -6.960705 
O 	 -0.466374 	 -3.040287 	 3.718118 
O 	 3.718770 	 4.808909 	 3.398999 
O 	 4.222491 	 -3.865546 	 -0.362240 
O 	 -3.499120 	 -1.580231 	 -4.340059 
O 	 -7.431726 	 5.709262 	 5.260283 
O 	 4.560603 	 -2.477540 	 1.790029 
O 	 0.891991 	 2.118920 	 2.878016 
O 	 4.418026 	 4.773777 	 -0.131665 
O 	 0.461725 	 6.626206 	 2.950527 
O 	 -3.092334 	 6.380988 	 -4.622725 
O 	 -1.760500 	 5.210506 	 -1.113431 
O 	 -2.636844 	 -3.569465 	 -2.529223 
O 	 -3.780675 	 1.641536 	 0.879643 
O 	 -1.585683 	 -4.437818 	 0.074742 
O 	 -3.328569 	 4.863056 	 3.772506 
O 	 0.495122 	 -5.247397 	 5.668166 
O 	 -6.840848 	 0.954333 	 0.160493 
O 	 4.364021 	 2.017409 	 1.262890 
O 	 3.208029 	 -6.447574 	 -3.057577 
O 	 -0.993006 	 -0.309898 	 5.722019 
O 	 -2.463774 	 -6.113493 	 -5.830662 
K 	 7.374854 	 -3.457545 	 -4.197645 
