333
conformation = 53
H 	 7.161153 	 -1.005334 	 5.218907 
H 	 7.220047 	 0.224918 	 6.046370 
H 	 3.642468 	 -3.964571 	 -4.143121 
H 	 4.809613 	 -4.481262 	 -5.003539 
H 	 -6.019127 	 -1.050836 	 -2.232053 
H 	 -6.056312 	 0.078222 	 -3.325366 
H 	 4.361664 	 0.186352 	 3.615462 
H 	 5.907892 	 -0.192257 	 3.715732 
H 	 -6.873062 	 -2.306240 	 0.891101 
H 	 -7.350821 	 -2.211818 	 -0.577207 
H 	 5.411048 	 -2.927074 	 -1.574757 
H 	 6.063481 	 -1.436988 	 -1.919978 
H 	 -3.524005 	 -4.514187 	 4.032647 
H 	 -4.325930 	 -3.236963 	 3.511884 
H 	 -7.235783 	 6.437039 	 -1.224991 
H 	 -5.753281 	 6.350890 	 -1.702614 
H 	 -3.818779 	 -2.785425 	 -7.339188 
H 	 -4.176119 	 -2.303401 	 -5.799790 
H 	 -5.783031 	 4.629920 	 -1.605816 
H 	 -4.565016 	 3.708294 	 -1.450919 
H 	 2.257819 	 -0.228592 	 4.830006 
H 	 2.204737 	 1.119519 	 3.945236 
H 	 -3.188830 	 6.440999 	 -1.491282 
H 	 -4.033543 	 -7.195869 	 -1.996795 
H 	 1.343575 	 4.320290 	 -2.223373 
H 	 1.274597 	 4.997996 	 -0.759703 
H 	 5.765494 	 6.118620 	 0.372815 
H 	 6.939756 	 7.091326 	 0.755817 
H 	 0.198687 	 -0.012045 	 -6.226093 
H 	 -0.752957 	 1.186912 	 -6.066873 
H 	 5.325541 	 0.815280 	 -1.413956 
H 	 6.892981 	 0.767727 	 -1.305370 
H 	 2.521841 	 -2.058870 	 -3.009593 
H 	 1.338565 	 -2.970424 	 -3.049281 
H 	 -5.297415 	 -5.357719 	 -5.348971 
H 	 -6.109032 	 -6.532779 	 -5.733613 
H 	 -2.871900 	 -5.941188 	 5.792817 
H 	 -4.274054 	 -6.598681 	 6.090720 
H 	 -0.702989 	 -6.954765 	 -6.920572 
H 	 0.452348 	 -6.710610 	 6.872584 
H 	 -3.248403 	 2.066486 	 5.947381 
H 	 -3.265691 	 2.801798 	 7.257694 
H 	 0.717209 	 5.771949 	 -7.233617 
H 	 0.454495 	 4.172596 	 7.424147 
H 	 6.947657 	 -3.803988 	 5.404267 
H 	 5.633352 	 -3.117550 	 4.903679 
H 	 -6.530072 	 1.221659 	 2.424808 
H 	 -6.564843 	 0.724303 	 3.971364 
H 	 0.590863 	 -4.545462 	 0.771680 
H 	 0.551646 	 -3.821187 	 2.169489 
H 	 -0.040922 	 -0.137723 	 -1.900485 
H 	 -0.908346 	 0.864993 	 -2.707607 
H 	 -1.907597 	 3.289342 	 -3.686424 
H 	 -2.826308 	 2.415406 	 -2.750415 
H 	 0.553692 	 1.994573 	 6.589178 
H 	 -1.010019 	 2.274996 	 6.327671 
H 	 6.381598 	 3.472481 	 -5.824220 
H 	 6.781119 	 3.596311 	 -4.327635 
H 	 7.102369 	 -6.029258 	 6.756049 
H 	 6.535220 	 -5.299140 	 -6.981627 
H 	 3.303451 	 0.404460 	 -2.852223 
H 	 4.215969 	 -0.320530 	 -3.830840 
H 	 6.307761 	 -6.354241 	 -0.380238 
H 	 5.941367 	 -4.883615 	 -0.447329 
H 	 5.304628 	 -1.307728 	 -6.673237 
H 	 4.492330 	 -2.056499 	 7.123180 
H 	 6.998083 	 5.900779 	 -5.278928 
H 	 -7.179596 	 6.311150 	 -3.972011 
H 	 -6.229882 	 -4.049362 	 2.510484 
H 	 7.349702 	 -3.418042 	 2.926709 
H 	 3.751406 	 -4.071645 	 4.888345 
H 	 2.947960 	 -2.713476 	 4.678111 
H 	 -5.680433 	 -4.775854 	 6.673751 
H 	 -5.674111 	 -4.324824 	 5.132507 
H 	 -0.497059 	 -2.866724 	 -7.164053 
H 	 0.540814 	 -3.911678 	 7.411703 
H 	 0.394079 	 -6.880767 	 -0.877411 
H 	 -0.184061 	 -6.603855 	 -2.239102 
H 	 3.677829 	 6.485026 	 -3.337306 
H 	 3.220839 	 5.160026 	 -4.101945 
H 	 -1.065883 	 3.596025 	 -5.782688 
H 	 0.032872 	 3.199522 	 -4.802585 
H 	 3.565562 	 -5.918194 	 0.021513 
H 	 4.232471 	 -7.283716 	 0.294136 
H 	 -5.389128 	 3.920867 	 0.764918 
H 	 -4.892732 	 3.641500 	 2.115990 
H 	 6.226638 	 0.074221 	 -3.757323 
H 	 5.855615 	 0.778074 	 -5.168481 
H 	 -0.782266 	 6.134069 	 -2.508247 
H 	 -1.359039 	 6.476789 	 -3.940461 
H 	 1.670292 	 -2.363212 	 6.264462 
H 	 0.578122 	 -1.266442 	 5.687903 
H 	 -6.401093 	 2.265353 	 -4.990921 
H 	 -5.166471 	 1.568180 	 -4.704531 
H 	 -4.252312 	 3.841389 	 -3.880279 
H 	 -5.603206 	 4.227361 	 -4.442272 
H 	 -0.452812 	 -5.341546 	 5.303515 
H 	 -2.003442 	 -5.615906 	 3.764673 
H 	 -6.043989 	 6.855321 	 4.759823 
H 	 -5.212838 	 -7.127946 	 3.782208 
H 	 -3.444266 	 -0.692048 	 2.768010 
H 	 -4.932813 	 -0.572800 	 2.676869 
H 	 2.445083 	 3.159599 	 -4.503243 
H 	 1.907460 	 4.251396 	 -5.576849 
H 	 3.660992 	 -6.714747 	 5.786226 
H 	 4.711829 	 -5.873181 	 6.465254 
H 	 2.107013 	 5.268590 	 5.172586 
H 	 1.035532 	 4.093010 	 5.207862 
H 	 0.461089 	 -4.852011 	 -4.308510 
H 	 0.055081 	 -3.514245 	 -4.982565 
H 	 4.024981 	 2.624101 	 -2.139549 
H 	 3.108881 	 1.715959 	 -1.249731 
H 	 7.150857 	 -1.831881 	 -7.107621 
H 	 -6.236485 	 -2.484277 	 -6.842717 
H 	 2.263407 	 0.820135 	 -7.012936 
H 	 2.570570 	 1.624282 	 6.628490 
H 	 2.066299 	 -1.625404 	 -6.325398 
H 	 2.367859 	 -0.599057 	 -5.192982 
H 	 0.824312 	 -6.865139 	 -5.628531 
H 	 0.588070 	 -7.093979 	 -4.134172 
H 	 -1.725096 	 4.406662 	 2.074592 
H 	 -1.926427 	 3.216130 	 1.242660 
H 	 1.952096 	 6.876184 	 0.392019 
H 	 0.947452 	 6.248423 	 1.301883 
H 	 5.250579 	 2.288170 	 7.478954 
H 	 4.288579 	 2.112801 	 -6.239893 
H 	 -2.958449 	 5.126957 	 -6.061052 
H 	 -2.628901 	 5.140591 	 7.307372 
H 	 -3.471245 	 0.674552 	 -6.759983 
H 	 -3.513433 	 -0.050491 	 -5.391961 
H 	 -2.552815 	 -6.887444 	 1.754673 
H 	 -1.096625 	 -7.306486 	 1.969917 
H 	 -0.928602 	 1.244785 	 2.495320 
H 	 -1.262899 	 -0.172246 	 1.688546 
H 	 -6.092360 	 -7.002441 	 1.599382 
H 	 -7.181405 	 -5.795408 	 1.685150 
H 	 -7.168293 	 1.692812 	 -6.725593 
H 	 -6.013977 	 0.761285 	 -7.043951 
H 	 -2.094327 	 -3.688207 	 5.799471 
H 	 -2.155108 	 -2.215087 	 5.876416 
H 	 -4.247189 	 1.845644 	 3.735972 
H 	 -3.427500 	 3.216942 	 3.976909 
H 	 5.390465 	 4.756408 	 -3.082427 
H 	 6.629367 	 4.241426 	 -2.356285 
H 	 -3.647097 	 -5.494299 	 -3.154264 
H 	 -5.057831 	 -5.385048 	 -2.642314 
H 	 1.821207 	 -1.792334 	 -0.924880 
H 	 1.361052 	 -1.245581 	 0.447680 
H 	 -3.482283 	 -4.150936 	 0.219365 
H 	 -4.498215 	 -3.982944 	 1.381424 
H 	 -3.400066 	 -1.527426 	 0.330628 
H 	 -4.877402 	 -1.612946 	 -0.225740 
H 	 3.207375 	 -6.397640 	 3.134134 
H 	 1.918112 	 -5.672084 	 2.534318 
H 	 3.198342 	 -4.056358 	 6.958476 
H 	 3.466362 	 -3.609224 	 -6.384239 
H 	 -7.247488 	 3.919750 	 2.562572 
H 	 6.799387 	 3.320245 	 3.517660 
H 	 -0.932466 	 -2.333429 	 1.928324 
H 	 -1.226516 	 -2.372783 	 0.392717 
H 	 -2.698797 	 6.975755 	 6.075250 
H 	 -1.240399 	 6.396550 	 6.063195 
H 	 6.395646 	 -6.771584 	 -4.560209 
H 	 5.169741 	 -6.243309 	 -3.781259 
H 	 -4.134365 	 7.405829 	 0.246992 
H 	 -4.455069 	 6.317786 	 1.368978 
H 	 -3.026055 	 0.103618 	 -3.070286 
H 	 -3.722736 	 -0.084908 	 -1.699368 
H 	 -6.844475 	 -4.621800 	 -1.246698 
H 	 -5.363926 	 -4.013043 	 -1.200137 
H 	 5.957888 	 -7.157242 	 2.739047 
H 	 4.981706 	 6.563250 	 2.914677 
H 	 1.403097 	 2.722658 	 -0.470413 
H 	 1.093600 	 1.226965 	 -0.460348 
H 	 4.022731 	 6.127861 	 6.454272 
H 	 4.441596 	 6.636053 	 5.009800 
H 	 4.614909 	 3.669599 	 4.810525 
H 	 4.811852 	 2.165393 	 4.865832 
H 	 5.409863 	 7.130912 	 -7.033995 
H 	 4.407683 	 6.160503 	 -6.261599 
H 	 0.178835 	 -2.673945 	 4.306514 
H 	 -0.811931 	 -3.847745 	 4.106161 
H 	 2.777285 	 4.806373 	 3.552248 
H 	 3.901640 	 3.989338 	 2.781463 
H 	 3.500658 	 -3.522831 	 -1.001852 
H 	 4.229553 	 -3.205338 	 0.353985 
H 	 -3.308735 	 -2.177856 	 -3.646877 
H 	 -4.342221 	 -1.223345 	 -4.017872 
H 	 7.204919 	 5.049140 	 5.878889 
H 	 7.263627 	 5.340620 	 4.281921 
H 	 4.185278 	 -3.067642 	 2.432718 
H 	 4.763528 	 -1.591771 	 2.106507 
H 	 1.047548 	 2.159700 	 1.865456 
H 	 0.848502 	 3.060632 	 3.048559 
H 	 4.428139 	 3.906079 	 0.296491 
H 	 3.533052 	 4.746607 	 -0.611294 
H 	 1.096628 	 7.411209 	 3.063634 
H 	 0.709090 	 5.964696 	 3.587124 
H 	 -3.924934 	 5.934571 	 -4.381696 
H 	 -3.231327 	 7.315193 	 -5.064702 
H 	 -2.094224 	 4.430690 	 -1.722548 
H 	 -1.709969 	 4.832471 	 -0.244038 
H 	 -2.534309 	 -3.169978 	 -1.692545 
H 	 -1.692043 	 -3.707818 	 -2.937960 
H 	 -3.016764 	 1.259539 	 1.279742 
H 	 -3.488483 	 1.744942 	 -0.140267 
H 	 -1.700681 	 -5.125684 	 0.693926 
H 	 -1.223138 	 -4.954924 	 -0.728336 
H 	 -4.204576 	 5.432033 	 3.835081 
H 	 -2.840242 	 5.132860 	 4.584074 
H 	 1.105630 	 -5.132151 	 4.907686 
H 	 -2.862755 	 -6.101355 	 -6.813427 
H 	 -6.093653 	 1.536611 	 0.072400 
H 	 -6.556924 	 0.001439 	 0.110474 
H 	 4.649556 	 1.212514 	 1.654029 
H 	 3.506991 	 1.876367 	 0.769574 
H 	 2.615313 	 -6.388953 	 -2.308710 
H 	 2.641000 	 -6.397216 	 -3.937296 
H 	 -1.135412 	 0.047370 	 6.644858 
H 	 -1.062074 	 0.444113 	 5.086398 
H 	 -2.355164 	 -5.208661 	 -5.576329 
O 	 7.244516 	 -0.019397 	 5.100746 
O 	 4.205383 	 -3.719179 	 -4.878465 
O 	 -5.873493 	 -0.857212 	 -3.189053 
O 	 5.169369 	 -0.046715 	 3.057384 
O 	 -6.789921 	 -1.725656 	 0.098616 
O 	 6.197478 	 -2.404281 	 -1.943211 
O 	 -4.423278 	 -4.216242 	 3.575938 
O 	 -6.686749 	 6.146799 	 -1.975859 
O 	 -4.511600 	 -2.756482 	 -6.639895 
O 	 -5.474037 	 3.856455 	 -1.107807 
O 	 2.757457 	 0.574995 	 4.560013 
O 	 -4.023982 	 6.969060 	 -1.370271 
O 	 1.676877 	 4.213547 	 -1.284290 
O 	 6.293084 	 6.855189 	 0.046201 
O 	 -0.753256 	 0.227847 	 -6.343465 
O 	 6.131393 	 0.331103 	 -1.774696 
O 	 2.141168 	 -2.858883 	 -2.534717 
O 	 -6.115236 	 -5.550871 	 -5.894247 
O 	 -3.327889 	 -6.517308 	 6.476722 
O 	 0.137104 	 7.560765 	 -7.253939 
O 	 -2.900045 	 2.003164 	 6.852710 
O 	 1.125835 	 4.865802 	 -7.129171 
O 	 6.605693 	 -3.012453 	 4.831158 
O 	 -5.978549 	 1.056368 	 3.234133 
O 	 1.190378 	 -4.232000 	 1.481734 
O 	 -0.012814 	 0.675074 	 -2.379467 
O 	 -2.631970 	 3.321539 	 -3.046686 
O 	 -0.118695 	 2.287291 	 5.942169 
O 	 7.179196 	 3.633505 	 -5.285535 
O 	 6.235211 	 -5.898015 	 7.191850 
O 	 3.319725 	 -0.422917 	 -3.466846 
O 	 6.628525 	 -5.475405 	 -0.706619 
O 	 5.133175 	 -1.326807 	 7.273026 
O 	 -7.427510 	 6.633579 	 -4.831390 
O 	 -7.081096 	 -3.769708 	 2.144922 
O 	 3.681671 	 -3.238907 	 4.363702 
O 	 -6.214207 	 -4.479900 	 5.933340 
O 	 0.455528 	 -3.079674 	 -6.942946 
O 	 0.002179 	 -6.176110 	 -1.371236 
O 	 3.977257 	 5.784427 	 -3.947524 
O 	 -0.809358 	 2.855427 	 -5.135154 
O 	 3.355585 	 -6.905750 	 0.121287 
O 	 -5.383152 	 4.350606 	 1.622349 
O 	 5.801609 	 -0.053979 	 -4.644738 
O 	 -0.517561 	 6.523477 	 -3.369482 
O 	 1.402051 	 -1.814123 	 5.503798 
O 	 -5.932045 	 1.875572 	 -4.242015 
O 	 -4.798255 	 4.625624 	 -4.008482 
O 	 -2.063761 	 -5.191448 	 4.652558 
O 	 -5.157497 	 7.089207 	 4.483521 
O 	 -4.249377 	 -1.247802 	 2.806336 
O 	 1.856649 	 3.925740 	 -4.632305 
O 	 3.870123 	 -5.752502 	 5.945423 
O 	 1.414200 	 4.822292 	 4.707544 
O 	 -0.045938 	 -4.011935 	 -4.152967 
O 	 3.839639 	 1.688033 	 -1.849592 
O 	 -7.155614 	 -2.334933 	 -6.495025 
O 	 2.073341 	 1.679950 	 7.454369 
O 	 2.068073 	 -0.675862 	 -6.098982 
O 	 1.048274 	 -6.490424 	 -4.738583 
O 	 -1.306105 	 3.973948 	 1.312889 
O 	 1.140968 	 6.258113 	 0.339103 
O 	 5.220055 	 2.032378 	 -6.451896 
O 	 -2.497793 	 4.643356 	 -6.756136 
O 	 -4.030899 	 0.567293 	 -5.950265 
O 	 -1.622029 	 -6.538828 	 1.716125 
O 	 -1.547618 	 0.738674 	 1.942099 
O 	 -7.002240 	 -6.740222 	 1.850635 
O 	 -6.834324 	 1.150167 	 7.472751 
O 	 -2.321337 	 -2.978055 	 6.435985 
O 	 -3.367155 	 2.223254 	 4.005694 
O 	 5.946209 	 3.914130 	 -2.923996 
O 	 -4.491579 	 -5.932458 	 -3.254610 
O 	 1.814474 	 -1.023297 	 -0.350000 
O 	 -4.416136 	 -4.060599 	 0.423968 
O 	 -3.919157 	 -1.492994 	 -0.498592 
O 	 2.219154 	 -6.198921 	 3.299318 
O 	 3.281734 	 -3.256738 	 -7.341372 
O 	 6.771334 	 4.079448 	 2.953684 
O 	 -0.985223 	 -1.748295 	 1.122403 
O 	 -2.153423 	 6.173342 	 5.826088 
O 	 5.847609 	 -5.956882 	 -4.425256 
O 	 -4.327260 	 7.299900 	 1.229354 
O 	 -3.161268 	 0.514075 	 -2.234696 
O 	 -6.040523 	 -4.363012 	 -1.759463 
O 	 5.100446 	 7.507872 	 3.142060 
O 	 1.678816 	 1.864804 	 -0.007776 
O 	 3.677833 	 6.455190 	 5.584674 
O 	 4.936247 	 2.962212 	 5.411236 
O 	 5.068367 	 6.218798 	 -7.011756 
O 	 -0.471770 	 -3.023647 	 3.700277 
O 	 3.715296 	 4.770909 	 3.358377 
O 	 4.210912 	 -3.866652 	 -0.420016 
O 	 -3.543142 	 -1.567280 	 -4.377702 
O 	 -7.413691 	 5.715574 	 5.208760 
O 	 4.584530 	 -2.493962 	 1.742979 
O 	 0.923499 	 2.116406 	 2.866342 
O 	 4.409314 	 4.770816 	 -0.198207 
O 	 0.462811 	 6.649612 	 2.914256 
O 	 -3.091656 	 6.384219 	 -4.657692 
O 	 -1.779286 	 5.211642 	 -1.152981 
O 	 -2.637921 	 -3.577738 	 -2.584510 
O 	 -3.771093 	 1.635713 	 0.803476 
O 	 -1.572342 	 -4.414228 	 0.010174 
O 	 -3.349899 	 4.879710 	 3.751514 
O 	 0.480778 	 -5.260918 	 5.651308 
O 	 -6.850178 	 0.948355 	 0.113676 
O 	 4.365382 	 2.026689 	 1.186228 
O 	 3.209418 	 -6.449111 	 -3.105686 
O 	 -0.995881 	 -0.304857 	 5.681637 
O 	 -2.439121 	 -6.127374 	 -5.901002 
K 	 7.384553 	 -3.453338 	 -4.251092 
