333
conformation = 20
H 	 6.935193 	 -1.081225 	 5.451267 
H 	 7.214495 	 0.279656 	 6.060994 
H 	 3.400920 	 -3.821921 	 -4.167115 
H 	 4.555820 	 -4.687986 	 -4.850038 
H 	 -5.800990 	 -0.921438 	 -2.005266 
H 	 -6.232647 	 -0.077250 	 -3.185134 
H 	 4.434724 	 -0.061644 	 3.882674 
H 	 5.978141 	 0.051304 	 3.769499 
H 	 -6.958932 	 -2.486289 	 0.862915 
H 	 7.390898 	 -2.207856 	 -0.508980 
H 	 5.469885 	 -3.016972 	 -1.344222 
H 	 6.024874 	 -1.546063 	 -1.781181 
H 	 -3.605842 	 -4.691849 	 3.896520 
H 	 -4.102650 	 -3.244713 	 3.538580 
H 	 -7.380217 	 6.178297 	 -1.189541 
H 	 -6.012420 	 6.622093 	 -1.661571 
H 	 -3.880571 	 -2.819174 	 7.558865 
H 	 -4.431637 	 -2.109885 	 -5.996842 
H 	 -5.876339 	 4.300117 	 -1.629913 
H 	 -4.627857 	 3.494518 	 -1.349403 
H 	 2.300551 	 -0.085195 	 5.030057 
H 	 2.034030 	 1.170680 	 4.124513 
H 	 -3.348901 	 6.235233 	 -1.281023 
H 	 -4.047195 	 7.465439 	 -2.052632 
H 	 1.241344 	 4.339615 	 -2.078184 
H 	 1.154848 	 4.878728 	 -0.586776 
H 	 5.601427 	 5.843599 	 0.371989 
H 	 6.627987 	 6.925550 	 1.011318 
H 	 0.208760 	 -0.118903 	 -5.984260 
H 	 -0.856883 	 0.873409 	 -5.611174 
H 	 5.304873 	 0.673023 	 -1.748387 
H 	 6.628504 	 0.526176 	 -0.987020 
H 	 2.182060 	 -2.026072 	 -2.994925 
H 	 1.343793 	 -3.252916 	 -3.082350 
H 	 -5.526649 	 -5.784260 	 -5.116615 
H 	 -6.669221 	 -6.572304 	 -5.594271 
H 	 -2.903777 	 -6.021406 	 5.569927 
H 	 -4.243575 	 -6.870751 	 6.015580 
H 	 -1.015495 	 -7.192232 	 -6.959449 
H 	 0.123297 	 -6.694023 	 6.905454 
H 	 -3.234134 	 2.201667 	 5.861616 
H 	 -2.894634 	 2.879654 	 7.217665 
H 	 0.379214 	 5.526939 	 -7.211271 
H 	 0.594739 	 3.942443 	 7.454755 
H 	 6.754628 	 -3.540839 	 5.600939 
H 	 5.470440 	 -3.152295 	 4.949375 
H 	 -6.502237 	 0.722029 	 2.334640 
H 	 -6.557308 	 0.635306 	 3.924501 
H 	 0.720166 	 -4.091665 	 0.789295 
H 	 0.307375 	 -3.915366 	 2.270993 
H 	 0.145805 	 -0.287643 	 -2.035805 
H 	 -0.895900 	 0.728917 	 -2.684122 
H 	 -2.117694 	 3.152785 	 -3.753538 
H 	 -2.958113 	 2.237257 	 -2.744953 
H 	 0.288698 	 1.772254 	 6.743311 
H 	 -1.082463 	 2.294732 	 6.151102 
H 	 6.580759 	 3.427234 	 -5.965544 
H 	 6.517065 	 3.814229 	 -4.429227 
H 	 6.838688 	 -5.890582 	 6.730616 
H 	 6.455900 	 -5.332840 	 -6.847383 
H 	 3.242628 	 0.317673 	 -2.898070 
H 	 4.035594 	 -0.591475 	 -3.758369 
H 	 6.362794 	 -6.503192 	 -0.844245 
H 	 5.639467 	 -5.137792 	 -0.659721 
H 	 5.008920 	 -1.118816 	 -6.650868 
H 	 4.666389 	 -2.081785 	 7.095836 
H 	 7.203542 	 5.723888 	 -5.097079 
H 	 -7.170901 	 6.424136 	 -3.803808 
H 	 -6.541240 	 -4.075720 	 2.808698 
H 	 6.871505 	 -3.749603 	 2.920219 
H 	 3.440719 	 -4.253720 	 4.593147 
H 	 2.789345 	 -2.853520 	 4.587643 
H 	 -5.937085 	 -4.690661 	 6.927951 
H 	 -5.635260 	 -4.235946 	 5.348817 
H 	 -0.548417 	 -3.240715 	 -7.313898 
H 	 0.738267 	 -3.960127 	 -7.224230 
H 	 -0.407073 	 -6.629086 	 -0.529791 
H 	 -0.378705 	 -6.944224 	 -2.040290 
H 	 3.998981 	 6.848316 	 -3.817625 
H 	 3.021040 	 5.583758 	 -3.914687 
H 	 -1.373714 	 3.582827 	 -5.787034 
H 	 -0.145372 	 3.144079 	 -4.935776 
H 	 3.390738 	 -5.906126 	 0.287610 
H 	 3.998816 	 -7.265873 	 0.487456 
H 	 -5.427753 	 4.414973 	 0.699831 
H 	 -5.088040 	 3.556178 	 1.717265 
H 	 6.101584 	 0.191949 	 -3.932186 
H 	 5.557378 	 0.424783 	 -5.387839 
H 	 -0.489295 	 5.877462 	 -2.350123 
H 	 -1.364434 	 6.324932 	 -3.561171 
H 	 1.581887 	 -2.023880 	 6.536993 
H 	 0.452811 	 -1.380889 	 5.545005 
H 	 -6.813517 	 2.269907 	 -4.490485 
H 	 -5.642096 	 1.637820 	 -5.230214 
H 	 -4.259885 	 3.822031 	 -3.726451 
H 	 -5.595010 	 3.864265 	 -4.366219 
H 	 -0.574509 	 -5.376634 	 5.371943 
H 	 -1.947345 	 -5.749119 	 3.845429 
H 	 -5.898523 	 6.238448 	 4.779682 
H 	 -5.848324 	 -7.355613 	 3.938070 
H 	 -3.580749 	 -0.757549 	 2.807934 
H 	 -5.063674 	 -0.852221 	 3.131138 
H 	 2.164635 	 2.989612 	 -4.887901 
H 	 1.391504 	 4.377783 	 -5.269214 
H 	 3.421119 	 -6.577755 	 5.918494 
H 	 4.666237 	 -6.111954 	 6.603856 
H 	 1.960919 	 5.240794 	 5.213452 
H 	 0.697083 	 4.175894 	 5.367877 
H 	 -0.018286 	 -4.994303 	 -4.349191 
H 	 -0.038060 	 -3.564216 	 -5.120142 
H 	 4.198559 	 2.434715 	 -1.602015 
H 	 2.936232 	 1.727624 	 -1.063176 
H 	 7.255661 	 -1.976336 	 -7.084033 
H 	 -6.200433 	 -2.682353 	 -6.754183 
H 	 2.070992 	 0.612223 	 7.550756 
H 	 2.504549 	 1.759015 	 6.598511 
H 	 1.564488 	 -1.651491 	 -6.076496 
H 	 2.285613 	 -0.661856 	 -5.092389 
H 	 0.841216 	 -6.802343 	 -5.667826 
H 	 0.347394 	 7.486150 	 -4.349915 
H 	 -1.919846 	 4.236280 	 2.011959 
H 	 -1.586671 	 2.845297 	 1.390276 
H 	 1.746242 	 6.846596 	 0.429613 
H 	 0.836490 	 6.159002 	 1.352884 
H 	 5.505850 	 1.684041 	 -7.336706 
H 	 4.199886 	 1.973760 	 -6.472823 
H 	 -2.851403 	 5.075198 	 -6.079322 
H 	 -2.337125 	 5.025445 	 7.414873 
H 	 -3.612012 	 1.036702 	 -6.754419 
H 	 -3.524054 	 0.047355 	 -5.496341 
H 	 -2.573174 	 -7.159476 	 1.519333 
H 	 -1.031610 	 -7.195918 	 1.944916 
H 	 -0.819686 	 1.112113 	 2.353317 
H 	 -1.424028 	 0.081640 	 1.339418 
H 	 -6.088155 	 -7.150360 	 1.598759 
H 	 -7.356193 	 -6.115935 	 1.580243 
H 	 -7.286623 	 1.600342 	 -6.653599 
H 	 -6.377244 	 0.406313 	 -7.080601 
H 	 -2.804390 	 -3.710079 	 5.833125 
H 	 -2.215892 	 -2.272009 	 5.996476 
H 	 -4.303164 	 1.671841 	 3.769384 
H 	 -3.638084 	 3.131157 	 3.983332 
H 	 5.251937 	 4.543584 	 -2.882450 
H 	 6.633936 	 4.297741 	 -2.262112 
H 	 -4.055750 	 -5.238272 	 -3.252676 
H 	 -5.372907 	 -5.537450 	 -2.643026 
H 	 1.857221 	 -1.982998 	 -0.898723 
H 	 1.565688 	 -1.413779 	 0.601392 
H 	 -3.532529 	 -4.367858 	 0.406364 
H 	 -4.722402 	 -4.133654 	 1.405675 
H 	 -3.416706 	 -1.863765 	 0.241511 
H 	 -4.751674 	 -2.168303 	 -0.448316 
H 	 2.993197 	 -6.588359 	 3.340728 
H 	 1.986697 	 -5.530487 	 2.733265 
H 	 3.190406 	 -4.315781 	 7.130427 
H 	 3.467387 	 -3.569633 	 -6.335250 
H 	 -7.340103 	 3.970021 	 2.341404 
H 	 7.133258 	 3.156302 	 3.453191 
H 	 -1.061562 	 -2.076973 	 2.179915 
H 	 -0.970666 	 -2.818293 	 0.796935 
H 	 -2.746664 	 6.962868 	 6.139083 
H 	 -1.390437 	 6.217915 	 5.810910 
H 	 6.216942 	 -6.726682 	 -4.446218 
H 	 5.278706 	 -6.117475 	 -3.359637 
H 	 -4.400582 	 7.149978 	 0.377375 
H 	 -4.504243 	 6.369667 	 1.768286 
H 	 -3.415577 	 -0.290990 	 -2.786949 
H 	 -3.103330 	 0.149079 	 -1.318843 
H 	 -6.985313 	 -5.027315 	 -1.632386 
H 	 -5.697783 	 -4.594905 	 -0.902004 
H 	 5.887298 	 -7.310487 	 3.407469 
H 	 4.972041 	 6.391482 	 2.959747 
H 	 1.178297 	 2.467780 	 -0.534577 
H 	 1.008245 	 0.980571 	 -0.537021 
H 	 4.055543 	 6.303967 	 6.310443 
H 	 4.071314 	 6.519404 	 4.738367 
H 	 4.405790 	 3.203566 	 4.812164 
H 	 4.614266 	 1.798566 	 5.442347 
H 	 5.665762 	 6.934156 	 -7.032231 
H 	 4.728073 	 6.224653 	 -6.059290 
H 	 0.215664 	 -2.908425 	 4.340737 
H 	 -1.169481 	 -3.601921 	 4.313228 
H 	 2.795640 	 4.186844 	 3.489004 
H 	 4.017098 	 4.205415 	 2.444218 
H 	 3.278722 	 -3.686656 	 -1.011704 
H 	 4.054297 	 -3.370386 	 0.347909 
H 	 -3.384824 	 -2.414715 	 -3.905859 
H 	 -4.655364 	 -1.583252 	 -3.812693 
H 	 7.409671 	 4.910221 	 5.819905 
H 	 6.968000 	 5.287618 	 4.335231 
H 	 4.195456 	 -2.863649 	 2.726479 
H 	 4.743740 	 -1.702287 	 1.762727 
H 	 1.433499 	 2.402430 	 2.224797 
H 	 0.606689 	 2.856222 	 3.425848 
H 	 4.414109 	 3.779029 	 0.213939 
H 	 3.349857 	 4.539050 	 -0.526953 
H 	 1.031247 	 7.378598 	 3.192579 
H 	 0.425154 	 5.958915 	 3.610945 
H 	 -4.015650 	 5.990356 	 -4.313071 
H 	 -3.200278 	 7.245068 	 -4.915241 
H 	 -2.209184 	 4.376014 	 -1.744054 
H 	 -1.687352 	 4.699083 	 -0.328310 
H 	 -2.682999 	 -3.613275 	 -1.657094 
H 	 -1.706796 	 -3.736951 	 -2.909520 
H 	 -3.222841 	 1.330917 	 1.293943 
H 	 -3.488316 	 1.459543 	 -0.182418 
H 	 -1.515583 	 -5.086203 	 0.731084 
H 	 -1.252111 	 -4.825599 	 -0.803931 
H 	 -4.187812 	 5.480662 	 3.495141 
H 	 -2.986324 	 5.434011 	 4.525617 
H 	 1.075481 	 -5.452670 	 5.273494 
H 	 -2.992781 	 -6.009620 	 -6.755001 
H 	 -6.118794 	 1.309391 	 -0.029938 
H 	 -6.858974 	 -0.076223 	 0.218588 
H 	 4.825553 	 1.657010 	 1.805051 
H 	 3.636658 	 1.384765 	 0.816834 
H 	 3.078987 	 -6.689758 	 -2.082254 
H 	 2.289213 	 -6.507979 	 -3.476356 
H 	 -1.125411 	 0.074785 	 6.594469 
H 	 -1.302900 	 0.211505 	 5.057020 
H 	 -2.047974 	 -5.456280 	 -5.598534 
O 	 7.155639 	 -0.161022 	 5.158937 
O 	 4.060485 	 -3.874247 	 -4.932016 
O 	 -6.045215 	 -0.999932 	 -2.916906 
O 	 5.186488 	 -0.089683 	 3.242544 
O 	 -6.796250 	 -1.897899 	 0.095447 
O 	 6.124609 	 -2.525775 	 -1.894860 
O 	 -4.427930 	 -4.165734 	 3.573449 
O 	 -6.773351 	 6.128448 	 -1.957338 
O 	 -4.550248 	 -2.828109 	 -6.590201 
O 	 -5.501919 	 3.661741 	 -0.966211 
O 	 2.729125 	 0.649227 	 4.576674 
O 	 -4.107907 	 6.901470 	 -1.268311 
O 	 1.501030 	 4.114151 	 -1.193149 
O 	 6.199551 	 6.599144 	 0.201423 
O 	 -0.733753 	 0.033739 	 -6.129996 
O 	 6.104956 	 0.154297 	 -1.741489 
O 	 2.045577 	 -2.881737 	 -2.542567 
O 	 -6.248275 	 -5.701631 	 -5.795231 
O 	 -3.413207 	 -6.560210 	 6.390477 
O 	 -0.117916 	 7.473655 	 -7.268274 
O 	 -2.884437 	 1.999845 	 6.758738 
O 	 1.050057 	 4.771909 	 -7.250878 
O 	 6.459317 	 -3.112315 	 4.825564 
O 	 -6.103193 	 1.040756 	 3.175672 
O 	 1.000354 	 -4.294411 	 1.691107 
O 	 -0.011674 	 0.642991 	 -2.320244 
O 	 -2.736008 	 3.197863 	 -2.964430 
O 	 -0.121096 	 2.267269 	 5.988620 
O 	 7.151316 	 3.660224 	 -5.220146 
O 	 6.189026 	 -6.039801 	 7.439207 
O 	 3.122517 	 -0.518983 	 -3.405863 
O 	 6.571524 	 -5.558959 	 -0.682623 
O 	 5.246825 	 -1.313714 	 7.327716 
O 	 -7.437473 	 6.576774 	 -4.717220 
O 	 -7.301512 	 -3.931228 	 2.227443 
O 	 3.588396 	 -3.370047 	 4.396500 
O 	 -6.306679 	 -4.601166 	 5.990524 
O 	 0.246408 	 -3.282370 	 -6.742886 
O 	 0.009300 	 -6.307842 	 -1.357076 
O 	 3.972670 	 5.850451 	 -3.881731 
O 	 -1.060962 	 2.865231 	 -5.181660 
O 	 3.209582 	 -6.840568 	 0.147816 
O 	 -5.461569 	 4.436286 	 1.667148 
O 	 5.670183 	 -0.252798 	 -4.686261 
O 	 -0.441164 	 6.378226 	 -3.230446 
O 	 1.290730 	 -1.885894 	 5.650878 
O 	 -5.992676 	 1.758934 	 -4.313045 
O 	 -4.957607 	 4.490751 	 -4.000682 
O 	 -2.101531 	 -5.278957 	 4.686199 
O 	 -5.289034 	 6.993750 	 4.492427 
O 	 -4.285361 	 -1.426761 	 2.914618 
O 	 1.741147 	 3.831212 	 -4.522212 
O 	 3.905864 	 -5.777210 	 6.015131 
O 	 1.249738 	 4.730828 	 4.750241 
O 	 -0.205616 	 -4.024457 	 -4.185237 
O 	 3.652201 	 1.685094 	 -1.762733 
O 	 -7.162640 	 -2.536409 	 -6.513231 
O 	 2.113050 	 1.594816 	 7.493375 
O 	 1.998880 	 -0.791666 	 -6.028325 
O 	 0.868947 	 -6.631460 	 -4.714819 
O 	 -1.455065 	 3.800253 	 1.268554 
O 	 1.082663 	 6.137101 	 0.395234 
O 	 5.181160 	 2.035471 	 -6.500789 
O 	 -2.590496 	 4.432283 	 -6.751270 
O 	 -4.141661 	 0.577649 	 -6.079678 
O 	 -1.780484 	 -6.568036 	 1.745400 
O 	 -1.649509 	 0.709916 	 2.026886 
O 	 -7.031970 	 -7.024168 	 1.814037 
O 	 -6.966784 	 1.093983 	 7.439254 
O 	 -2.540625 	 -3.048399 	 6.529107 
O 	 -3.514141 	 2.167464 	 4.100709 
O 	 5.945056 	 3.823965 	 -2.851539 
O 	 -4.704407 	 -5.990481 	 -3.249844 
O 	 1.840947 	 -1.176641 	 -0.319857 
O 	 -4.490218 	 -4.190548 	 0.437683 
O 	 -4.002700 	 -1.528664 	 -0.459550 
O 	 2.121809 	 -6.223160 	 3.447577 
O 	 3.202130 	 -3.413560 	 -7.334975 
O 	 6.806437 	 3.991573 	 2.957358 
O 	 -1.001747 	 -1.893598 	 1.185264 
O 	 -2.358959 	 6.041147 	 5.877785 
O 	 5.709494 	 -5.906702 	 -4.193750 
O 	 -4.303906 	 7.243541 	 1.367463 
O 	 -3.262037 	 0.497268 	 -2.210424 
O 	 -6.187966 	 -4.459180 	 -1.699672 
O 	 4.926315 	 7.361495 	 3.134702 
O 	 1.512425 	 1.666549 	 -0.090116 
O 	 3.486167 	 6.355694 	 5.502506 
O 	 4.968531 	 2.723160 	 5.488543 
O 	 5.061351 	 6.173656 	 -6.946687 
O 	 -0.585018 	 -3.040111 	 3.774403 
O 	 3.718260 	 4.470705 	 3.332206 
O 	 4.029486 	 -3.973169 	 -0.456500 
O 	 -3.810919 	 -1.553190 	 -4.212851 
O 	 7.388131 	 5.659973 	 5.192925 
O 	 4.567893 	 -2.641518 	 1.808429 
O 	 0.962332 	 2.003315 	 3.009359 
O 	 4.278603 	 4.641040 	 -0.206400 
O 	 0.349120 	 6.677016 	 2.963229 
O 	 -3.121259 	 6.346793 	 -4.604295 
O 	 -1.982811 	 5.144349 	 -1.136285 
O 	 -2.682761 	 -3.677737 	 -2.626460 
O 	 -3.865179 	 1.597246 	 0.664738 
O 	 -1.628195 	 -4.403864 	 -0.007890 
O 	 -3.545925 	 4.875160 	 3.873431 
O 	 0.317163 	 -5.393062 	 5.884075 
O 	 -6.987769 	 0.900626 	 0.168653 
O 	 4.259325 	 2.043860 	 1.121824 
O 	 3.145632 	 -6.543767 	 -3.055310 
O 	 -1.158244 	 -0.439101 	 5.785460 
O 	 -2.404107 	 -6.259983 	 -5.984497 
K 	 7.330434 	 -3.508094 	 -4.209501 
