333
conformation = 55
H 	 7.151000 	 -1.005566 	 5.185961 
H 	 7.242078 	 0.239974 	 6.038212 
H 	 3.646005 	 -3.961489 	 -4.145642 
H 	 4.805340 	 -4.512232 	 -4.990368 
H 	 -6.033636 	 -1.062494 	 -2.236670 
H 	 -6.045588 	 0.087418 	 -3.346833 
H 	 4.351266 	 0.169535 	 3.594113 
H 	 5.887363 	 -0.203630 	 3.733043 
H 	 -6.886664 	 -2.305840 	 0.898265 
H 	 -7.369452 	 -2.189823 	 -0.584951 
H 	 5.428647 	 -2.922684 	 -1.568614 
H 	 6.073891 	 -1.431876 	 -1.921399 
H 	 -3.519662 	 -4.516642 	 4.011997 
H 	 -4.351460 	 -3.235717 	 3.503197 
H 	 -7.224465 	 6.472072 	 -1.224582 
H 	 -5.746756 	 6.352659 	 -1.690740 
H 	 -3.820426 	 -2.807233 	 -7.318079 
H 	 -4.150056 	 -2.334939 	 -5.776553 
H 	 -5.781865 	 4.631089 	 -1.605390 
H 	 -4.582592 	 3.724288 	 -1.473647 
H 	 2.269118 	 -0.255928 	 4.831536 
H 	 2.206183 	 1.112931 	 3.933592 
H 	 -3.192199 	 6.446333 	 -1.518606 
H 	 -4.022536 	 -7.190757 	 -2.011842 
H 	 1.345281 	 4.313619 	 -2.225997 
H 	 1.260016 	 4.988369 	 -0.762177 
H 	 5.773699 	 6.097102 	 0.355256 
H 	 6.926586 	 7.085161 	 0.775524 
H 	 0.201147 	 -0.012302 	 -6.218642 
H 	 -0.767460 	 1.186410 	 -6.097987 
H 	 5.316430 	 0.804575 	 -1.392437 
H 	 6.891259 	 0.758247 	 -1.284063 
H 	 2.549631 	 -2.064665 	 -3.012747 
H 	 1.314922 	 -2.974543 	 -3.053322 
H 	 -5.299568 	 -5.350680 	 -5.364354 
H 	 -6.109004 	 -6.522274 	 -5.721898 
H 	 -2.858365 	 -5.930381 	 5.805015 
H 	 -4.273885 	 -6.583000 	 6.089048 
H 	 -0.697244 	 -6.939023 	 -6.916532 
H 	 0.464714 	 -6.711290 	 6.893213 
H 	 -3.251366 	 2.064726 	 5.944498 
H 	 -3.288937 	 2.775931 	 7.283671 
H 	 0.740420 	 5.767617 	 -7.217854 
H 	 0.456560 	 4.198140 	 7.426654 
H 	 6.953708 	 -3.812622 	 5.403689 
H 	 5.643914 	 -3.111389 	 4.909360 
H 	 -6.521272 	 1.259503 	 2.446016 
H 	 -6.581418 	 0.719713 	 3.983722 
H 	 0.586234 	 -4.577726 	 0.773618 
H 	 0.580271 	 -3.823832 	 2.177114 
H 	 -0.043969 	 -0.150001 	 -1.880913 
H 	 -0.926188 	 0.866401 	 -2.685455 
H 	 -1.908545 	 3.287581 	 -3.682942 
H 	 -2.843535 	 2.442472 	 -2.729980 
H 	 0.558484 	 1.978959 	 6.560039 
H 	 -1.012763 	 2.258635 	 6.350350 
H 	 6.367874 	 3.448817 	 -5.824149 
H 	 6.779313 	 3.601404 	 -4.327357 
H 	 7.115155 	 -6.027131 	 6.746479 
H 	 6.547018 	 -5.312792 	 -6.992072 
H 	 3.291675 	 0.398049 	 -2.856481 
H 	 4.227325 	 -0.340115 	 -3.840404 
H 	 6.304409 	 -6.343395 	 -0.372249 
H 	 5.949565 	 -4.879304 	 -0.454871 
H 	 5.302863 	 -1.307285 	 -6.668525 
H 	 4.476458 	 -2.052371 	 7.135241 
H 	 7.000252 	 5.883542 	 -5.270923 
H 	 -7.178722 	 6.293882 	 -3.955192 
H 	 -6.204418 	 -4.051192 	 2.509532 
H 	 7.357940 	 -3.401202 	 2.896657 
H 	 3.768265 	 -4.095877 	 4.912746 
H 	 2.947207 	 -2.694184 	 4.701602 
H 	 -5.686960 	 -4.757686 	 6.662627 
H 	 -5.681481 	 -4.357083 	 5.131448 
H 	 -0.492524 	 -2.843437 	 -7.151393 
H 	 0.539494 	 -3.906427 	 7.400944 
H 	 0.434489 	 -6.884497 	 -0.880487 
H 	 -0.187556 	 -6.565342 	 -2.233323 
H 	 3.656196 	 6.451288 	 -3.325379 
H 	 3.250640 	 5.131877 	 -4.092778 
H 	 -1.068484 	 3.578656 	 -5.791041 
H 	 0.035257 	 3.228018 	 -4.797288 
H 	 3.557879 	 -5.922210 	 0.007903 
H 	 4.265711 	 -7.300118 	 0.285207 
H 	 -5.407172 	 3.883268 	 0.770327 
H 	 -4.869014 	 3.646446 	 2.127759 
H 	 6.221606 	 0.074080 	 -3.752232 
H 	 5.884025 	 0.786838 	 -5.147925 
H 	 -0.788085 	 6.131279 	 -2.532145 
H 	 -1.358544 	 6.476421 	 -3.964339 
H 	 1.667757 	 -2.391770 	 6.270518 
H 	 0.577820 	 -1.266810 	 5.711352 
H 	 -6.384875 	 2.244073 	 -5.004238 
H 	 -5.149201 	 1.564569 	 -4.678570 
H 	 -4.263025 	 3.851266 	 -3.853775 
H 	 -5.597585 	 4.254917 	 -4.448945 
H 	 -0.464856 	 -5.341168 	 5.298135 
H 	 -2.000053 	 -5.632243 	 3.773005 
H 	 -6.037193 	 6.906357 	 4.779769 
H 	 -5.207709 	 -7.119720 	 3.780079 
H 	 -3.441218 	 -0.698161 	 2.777519 
H 	 -4.926192 	 -0.556928 	 2.684111 
H 	 2.452375 	 3.198659 	 -4.510638 
H 	 1.930391 	 4.219563 	 -5.590557 
H 	 3.666054 	 -6.746012 	 5.786541 
H 	 4.705925 	 -5.838738 	 6.425639 
H 	 2.109225 	 5.263297 	 5.181746 
H 	 1.058275 	 4.090261 	 5.196012 
H 	 0.472214 	 -4.832993 	 -4.301521 
H 	 0.041165 	 -3.556508 	 -4.965483 
H 	 4.016441 	 2.628852 	 -2.164715 
H 	 3.126564 	 1.710970 	 -1.241024 
H 	 7.124609 	 -1.830344 	 -7.129889 
H 	 -6.237569 	 -2.458442 	 -6.840696 
H 	 2.258973 	 0.836407 	 -6.989453 
H 	 2.560176 	 1.604319 	 6.625630 
H 	 2.114949 	 -1.633140 	 -6.336660 
H 	 2.375602 	 -0.594003 	 -5.193451 
H 	 0.833722 	 -6.870027 	 -5.643457 
H 	 0.597371 	 -7.083303 	 -4.139876 
H 	 -1.756264 	 4.408699 	 2.081220 
H 	 -1.954186 	 3.235390 	 1.256233 
H 	 1.965740 	 6.865217 	 0.383527 
H 	 0.942959 	 6.234109 	 1.297083 
H 	 5.226769 	 2.316815 	 7.492717 
H 	 4.274111 	 2.130055 	 -6.248053 
H 	 -2.948520 	 5.144882 	 -6.028637 
H 	 -2.625077 	 5.151529 	 7.300492 
H 	 -3.472040 	 0.706699 	 -6.757059 
H 	 -3.525976 	 -0.061482 	 -5.417699 
H 	 -2.543692 	 -6.870965 	 1.752190 
H 	 -1.092686 	 -7.302366 	 2.000865 
H 	 -0.930324 	 1.241981 	 2.499484 
H 	 -1.240577 	 -0.183364 	 1.687681 
H 	 -6.090859 	 -6.989034 	 1.571885 
H 	 -7.173099 	 -5.794795 	 1.680018 
H 	 -7.175772 	 1.687324 	 -6.726029 
H 	 -6.006926 	 0.780979 	 -7.043837 
H 	 -2.067497 	 -3.669489 	 5.800022 
H 	 -2.143114 	 -2.213606 	 5.870344 
H 	 -4.243104 	 1.871598 	 3.734488 
H 	 -3.438578 	 3.228042 	 3.997747 
H 	 5.385852 	 4.740848 	 -3.108151 
H 	 6.616959 	 4.221981 	 -2.336303 
H 	 -3.633366 	 -5.491889 	 -3.152006 
H 	 -5.059850 	 -5.389896 	 -2.624253 
H 	 1.808955 	 -1.774265 	 -0.931100 
H 	 1.333899 	 -1.253285 	 0.450641 
H 	 -3.481602 	 -4.153955 	 0.196777 
H 	 -4.475249 	 -3.993999 	 1.377088 
H 	 -3.393942 	 -1.491824 	 0.329486 
H 	 -4.876851 	 -1.583805 	 -0.236394 
H 	 3.205496 	 -6.401609 	 3.129431 
H 	 1.927424 	 -5.662032 	 2.539386 
H 	 3.238774 	 -4.055184 	 6.979020 
H 	 3.441978 	 -3.595519 	 -6.396933 
H 	 -7.231586 	 3.924100 	 2.586007 
H 	 6.769310 	 3.317958 	 3.505147 
H 	 -0.919929 	 -2.326499 	 1.903358 
H 	 -1.239506 	 -2.335991 	 0.390657 
H 	 -2.693650 	 6.965260 	 6.074671 
H 	 -1.232348 	 6.390987 	 6.058118 
H 	 6.394453 	 -6.775886 	 -4.543511 
H 	 5.150332 	 -6.269198 	 -3.799873 
H 	 -4.133015 	 7.428357 	 0.231846 
H 	 -4.432655 	 6.319253 	 1.359314 
H 	 -3.016068 	 0.133743 	 -3.088821 
H 	 -3.740275 	 -0.094645 	 -1.723236 
H 	 -6.826642 	 -4.647619 	 -1.234826 
H 	 -5.337746 	 -3.983013 	 -1.199158 
H 	 5.926084 	 -7.164186 	 2.731291 
H 	 4.960676 	 6.570527 	 2.918884 
H 	 1.393207 	 2.730772 	 -0.483606 
H 	 1.083432 	 1.229429 	 -0.460052 
H 	 3.998382 	 6.124122 	 6.473099 
H 	 4.427607 	 6.628886 	 4.986667 
H 	 4.622004 	 3.680276 	 4.826480 
H 	 4.809680 	 2.201382 	 4.838174 
H 	 5.408609 	 7.133438 	 -7.039892 
H 	 4.400862 	 6.132939 	 -6.251040 
H 	 0.170526 	 -2.679301 	 4.334456 
H 	 -0.826287 	 -3.862064 	 4.084425 
H 	 2.768001 	 4.817496 	 3.558382 
H 	 3.873694 	 3.985254 	 2.811105 
H 	 3.494402 	 -3.534947 	 -0.992388 
H 	 4.233744 	 -3.212972 	 0.335327 
H 	 -3.308886 	 -2.174403 	 -3.656791 
H 	 -4.357931 	 -1.255403 	 -4.020717 
H 	 7.205771 	 5.068188 	 5.880301 
H 	 7.277631 	 5.325700 	 4.314140 
H 	 4.196446 	 -3.073045 	 2.403966 
H 	 4.787065 	 -1.585930 	 2.116238 
H 	 1.008463 	 2.143826 	 1.871665 
H 	 0.864415 	 3.051477 	 3.022704 
H 	 4.432211 	 3.897602 	 0.291396 
H 	 3.532404 	 4.749851 	 -0.615285 
H 	 1.097781 	 7.390345 	 3.079062 
H 	 0.704114 	 5.957131 	 3.589296 
H 	 -3.912339 	 5.952644 	 -4.358637 
H 	 -3.250803 	 7.313585 	 -5.062101 
H 	 -2.089075 	 4.428718 	 -1.704417 
H 	 -1.703907 	 4.839581 	 -0.225179 
H 	 -2.557359 	 -3.146940 	 -1.696451 
H 	 -1.722124 	 -3.717270 	 -2.940648 
H 	 -2.997507 	 1.241358 	 1.300481 
H 	 -3.499425 	 1.749626 	 -0.137667 
H 	 -1.701208 	 -5.120904 	 0.684519 
H 	 -1.208303 	 -4.968087 	 -0.714426 
H 	 -4.187324 	 5.419199 	 3.849187 
H 	 -2.833902 	 5.119855 	 4.561143 
H 	 1.104867 	 -5.167777 	 4.883504 
H 	 -2.857344 	 -6.102655 	 -6.809947 
H 	 -6.076758 	 1.533897 	 0.077673 
H 	 -6.553863 	 -0.003815 	 0.111416 
H 	 4.639510 	 1.188392 	 1.646682 
H 	 3.481497 	 1.867400 	 0.776302 
H 	 2.602843 	 -6.376242 	 -2.338914 
H 	 2.634189 	 -6.385168 	 -3.957887 
H 	 -1.122578 	 0.013100 	 6.663799 
H 	 -1.040144 	 0.448652 	 5.075185 
H 	 -2.382356 	 -5.184273 	 -5.583126 
O 	 7.243554 	 -0.020445 	 5.101227 
O 	 4.208077 	 -3.715926 	 -4.871245 
O 	 -5.872461 	 -0.854085 	 -3.198878 
O 	 5.161783 	 -0.047243 	 3.050322 
O 	 -6.791770 	 -1.724452 	 0.101484 
O 	 6.194951 	 -2.403499 	 -1.942610 
O 	 -4.428196 	 -4.220354 	 3.580231 
O 	 -6.689417 	 6.141609 	 -1.975730 
O 	 -4.514783 	 -2.758153 	 -6.642605 
O 	 -5.475934 	 3.859311 	 -1.110015 
O 	 2.754972 	 0.569235 	 4.562242 
O 	 -4.025705 	 6.967979 	 -1.371498 
O 	 1.681048 	 4.215896 	 -1.286144 
O 	 6.294690 	 6.863791 	 0.040649 
O 	 -0.759755 	 0.233727 	 -6.351643 
O 	 6.128712 	 0.336112 	 -1.776368 
O 	 2.142925 	 -2.862194 	 -2.530899 
O 	 -6.111567 	 -5.549021 	 -5.896510 
O 	 -3.331870 	 -6.518005 	 6.482404 
O 	 0.143533 	 7.560628 	 -7.252028 
O 	 -2.904576 	 2.000225 	 6.857136 
O 	 1.123623 	 4.865642 	 -7.120831 
O 	 6.608202 	 -3.011076 	 4.831941 
O 	 -5.978181 	 1.052537 	 3.237082 
O 	 1.193585 	 -4.233438 	 1.474824 
O 	 -0.016657 	 0.673191 	 -2.380999 
O 	 -2.629819 	 3.319247 	 -3.048435 
O 	 -0.123149 	 2.290545 	 5.943044 
O 	 7.175525 	 3.629807 	 -5.286405 
O 	 6.234365 	 -5.896249 	 7.185942 
O 	 3.323381 	 -0.422885 	 -3.469148 
O 	 6.623566 	 -5.473912 	 -0.704317 
O 	 5.125037 	 -1.330279 	 7.273185 
O 	 -7.432861 	 6.636521 	 -4.836425 
O 	 -7.075525 	 -3.766191 	 2.147147 
O 	 3.681977 	 -3.237367 	 4.363446 
O 	 -6.213717 	 -4.480104 	 5.933869 
O 	 0.456422 	 -3.074819 	 -6.950275 
O 	 -0.002814 	 -6.177650 	 -1.371247 
O 	 3.972105 	 5.778130 	 -3.948193 
O 	 -0.802243 	 2.851059 	 -5.129075 
O 	 3.356380 	 -6.910282 	 0.121500 
O 	 -5.385735 	 4.343340 	 1.622969 
O 	 5.802521 	 -0.049838 	 -4.639728 
O 	 -0.528802 	 6.526190 	 -3.371210 
O 	 1.401453 	 -1.811628 	 5.497799 
O 	 -5.933206 	 1.875341 	 -4.235367 
O 	 -4.798572 	 4.627217 	 -4.007688 
O 	 -2.066848 	 -5.190473 	 4.654037 
O 	 -5.155153 	 7.088890 	 4.486141 
O 	 -4.251285 	 -1.243951 	 2.802650 
O 	 1.856829 	 3.924564 	 -4.633067 
O 	 3.860410 	 -5.751184 	 5.944871 
O 	 1.415097 	 4.821490 	 4.709254 
O 	 -0.043283 	 -4.013542 	 -4.148805 
O 	 3.842106 	 1.686618 	 -1.851903 
O 	 -7.160522 	 -2.330091 	 -6.492730 
O 	 2.070041 	 1.680497 	 7.456222 
O 	 2.064291 	 -0.675504 	 -6.098140 
O 	 1.050843 	 -6.488970 	 -4.735043 
O 	 -1.302389 	 3.977953 	 1.317399 
O 	 1.139093 	 6.262978 	 0.339002 
O 	 5.215865 	 2.027955 	 -6.448462 
O 	 -2.498365 	 4.646971 	 -6.755557 
O 	 -4.030481 	 0.561034 	 -5.940295 
O 	 -1.622463 	 -6.542513 	 1.718668 
O 	 -1.547740 	 0.735964 	 1.942190 
O 	 -7.005641 	 -6.730580 	 1.857596 
O 	 -6.831828 	 1.149121 	 7.478137 
O 	 -2.314480 	 -2.978798 	 6.434018 
O 	 -3.365088 	 2.218180 	 4.004902 
O 	 5.941536 	 3.915896 	 -2.923303 
O 	 -4.484268 	 -5.934318 	 -3.253213 
O 	 1.807967 	 -1.020044 	 -0.348973 
O 	 -4.418097 	 -4.059096 	 0.428813 
O 	 -3.920815 	 -1.495738 	 -0.496494 
O 	 2.218726 	 -6.200438 	 3.293680 
O 	 3.278138 	 -3.255106 	 -7.342229 
O 	 6.764816 	 4.080121 	 2.956052 
O 	 -0.990044 	 -1.749553 	 1.123515 
O 	 -2.146188 	 6.174450 	 5.829270 
O 	 5.851125 	 -5.962762 	 -4.434877 
O 	 -4.334891 	 7.296746 	 1.228575 
O 	 -3.159830 	 0.510741 	 -2.232919 
O 	 -6.040379 	 -4.360388 	 -1.760986 
O 	 5.106225 	 7.510342 	 3.143341 
O 	 1.683112 	 1.871123 	 0.001212 
O 	 3.682953 	 6.454618 	 5.593684 
O 	 4.930457 	 2.968088 	 5.409337 
O 	 5.063524 	 6.217863 	 -7.010553 
O 	 -0.470844 	 -3.026909 	 3.695796 
O 	 3.715358 	 4.778167 	 3.358510 
O 	 4.213601 	 -3.866079 	 -0.415508 
O 	 -3.534295 	 -1.570276 	 -4.378486 
O 	 -7.417495 	 5.712699 	 5.210491 
O 	 4.578712 	 -2.492230 	 1.745697 
O 	 0.917078 	 2.117384 	 2.860844 
O 	 4.411223 	 4.772005 	 -0.193556 
O 	 0.462726 	 6.645108 	 2.913133 
O 	 -3.093006 	 6.381544 	 -4.657974 
O 	 -1.775321 	 5.211617 	 -1.153825 
O 	 -2.636856 	 -3.576734 	 -2.581840 
O 	 -3.773412 	 1.636323 	 0.810533 
O 	 -1.575014 	 -4.419749 	 0.015631 
O 	 -3.345384 	 4.876314 	 3.747869 
O 	 0.483818 	 -5.258379 	 5.646331 
O 	 -6.848649 	 0.948988 	 0.114812 
O 	 4.366253 	 2.024773 	 1.193518 
O 	 3.209201 	 -6.449048 	 -3.102331 
O 	 -0.995145 	 -0.305098 	 5.680263 
O 	 -2.444398 	 -6.126096 	 -5.895126 
K 	 7.382545 	 -3.454460 	 -4.248873 
