333
conformation = 8
H 	 6.823711 	 -1.017455 	 5.329167 
H 	 7.481719 	 0.309350 	 5.950680 
H 	 3.479116 	 -3.624910 	 -4.293005 
H 	 4.425763 	 -4.771641 	 -4.802477 
H 	 -5.678184 	 -0.778250 	 -2.001141 
H 	 -6.007244 	 -0.070818 	 -3.280231 
H 	 4.452143 	 -0.021783 	 3.760272 
H 	 6.013839 	 0.112941 	 3.909319 
H 	 -6.900810 	 -2.473570 	 0.800184 
H 	 7.499017 	 -2.078085 	 -0.640343 
H 	 5.525203 	 -2.840309 	 -1.281093 
H 	 6.030604 	 -1.525532 	 -1.868444 
H 	 -3.463664 	 -4.558481 	 3.668326 
H 	 -4.031641 	 -3.131896 	 3.408715 
H 	 7.533924 	 6.366784 	 -1.294060 
H 	 -5.816910 	 6.578431 	 -1.773350 
H 	 -3.695241 	 -2.765102 	 -7.295092 
H 	 -4.133320 	 -2.068496 	 -6.017020 
H 	 -5.828529 	 4.287225 	 -1.609345 
H 	 -4.514638 	 3.410430 	 -1.351670 
H 	 2.411575 	 -0.020067 	 4.964702 
H 	 2.088036 	 1.137448 	 4.036758 
H 	 -3.362687 	 6.191912 	 -1.312427 
H 	 -3.925150 	 -7.341036 	 -2.077555 
H 	 1.391107 	 4.353101 	 -2.163601 
H 	 1.189598 	 4.893278 	 -0.648017 
H 	 5.703567 	 5.820294 	 0.130338 
H 	 6.716029 	 6.829110 	 1.041383 
H 	 0.334201 	 -0.054862 	 -5.885862 
H 	 -0.915084 	 0.924555 	 -5.737971 
H 	 5.277033 	 0.568803 	 -1.717634 
H 	 6.636606 	 0.531051 	 -0.963335 
H 	 2.408753 	 -1.952720 	 -3.063808 
H 	 1.408413 	 -3.245481 	 -3.094341 
H 	 -5.444633 	 -5.782812 	 -5.130168 
H 	 -6.783146 	 -6.455958 	 -5.690116 
H 	 -2.800664 	 -5.915438 	 5.614194 
H 	 -4.204397 	 -6.654978 	 5.785607 
H 	 -0.927255 	 -7.056794 	 -6.957859 
H 	 0.163549 	 -6.638949 	 6.933054 
H 	 -3.213457 	 2.247798 	 5.791017 
H 	 -2.884163 	 2.858642 	 7.236340 
H 	 0.468630 	 5.546397 	 -7.300387 
H 	 0.612512 	 3.976870 	 7.327055 
H 	 6.996916 	 -3.462050 	 5.552282 
H 	 5.522599 	 -3.038223 	 4.864880 
H 	 -6.436811 	 0.888859 	 2.213540 
H 	 -6.599428 	 0.620595 	 3.759312 
H 	 0.847543 	 -3.945920 	 0.814631 
H 	 0.317209 	 -3.839799 	 2.276439 
H 	 0.308698 	 -0.214737 	 -2.212000 
H 	 -0.846512 	 0.670409 	 -2.556035 
H 	 -2.055650 	 3.022746 	 -3.749622 
H 	 -2.875716 	 2.309187 	 -2.788921 
H 	 0.420011 	 1.807502 	 6.592031 
H 	 -0.961186 	 2.200150 	 6.151488 
H 	 6.705432 	 3.457262 	 -6.006637 
H 	 6.611731 	 3.875525 	 -4.503033 
H 	 6.836744 	 -5.839258 	 6.670426 
H 	 6.556999 	 -5.327745 	 -6.766413 
H 	 3.248910 	 0.432401 	 -2.991301 
H 	 4.088635 	 -0.695659 	 -3.754157 
H 	 6.489036 	 -6.480689 	 -0.902210 
H 	 5.787830 	 -5.092125 	 -0.832968 
H 	 5.061026 	 -1.030868 	 -6.731982 
H 	 4.768362 	 -1.957197 	 7.080721 
H 	 -7.342346 	 5.747041 	 -5.108231 
H 	 -6.985283 	 6.564713 	 -3.850878 
H 	 -6.566183 	 -3.956193 	 2.875062 
H 	 6.906555 	 -3.613479 	 2.749580 
H 	 3.503169 	 -4.265227 	 4.562673 
H 	 2.910370 	 -2.885968 	 4.700998 
H 	 -5.840241 	 -4.446451 	 6.869314 
H 	 -5.494138 	 -4.315971 	 5.372641 
H 	 -0.525997 	 -3.274256 	 -7.327208 
H 	 0.953221 	 -3.825776 	 -7.220671 
H 	 -0.316075 	 -6.574077 	 -0.630660 
H 	 -0.229692 	 -6.945915 	 -2.059896 
H 	 3.941297 	 6.913067 	 -3.825025 
H 	 3.161965 	 5.648680 	 -3.908233 
H 	 -1.481199 	 3.471680 	 -6.004747 
H 	 -0.201853 	 3.341956 	 -4.936133 
H 	 3.425343 	 -5.741982 	 0.211973 
H 	 4.087265 	 -7.138917 	 0.397143 
H 	 -5.535263 	 4.636591 	 0.643121 
H 	 -4.937688 	 3.672776 	 1.724957 
H 	 6.189194 	 0.175113 	 -3.972079 
H 	 5.668115 	 0.514311 	 -5.401793 
H 	 -0.383706 	 5.810675 	 -2.466295 
H 	 -1.258470 	 6.270342 	 -3.572946 
H 	 1.645299 	 -2.020643 	 6.512189 
H 	 0.514863 	 -1.272197 	 5.752606 
H 	 -6.741418 	 2.244134 	 -4.461708 
H 	 -5.460191 	 1.623646 	 -5.203178 
H 	 -4.235579 	 3.996720 	 -3.589850 
H 	 -5.471292 	 3.898530 	 -4.554501 
H 	 -0.491802 	 -5.306620 	 5.382502 
H 	 -1.799408 	 -5.783675 	 3.849882 
H 	 -5.766180 	 6.453865 	 4.917386 
H 	 -5.924355 	 -7.347830 	 4.029498 
H 	 -3.439421 	 -0.771318 	 2.770763 
H 	 -4.898362 	 -0.889766 	 3.276646 
H 	 2.350034 	 3.159243 	 -5.029505 
H 	 1.627323 	 4.519714 	 -5.261749 
H 	 3.560585 	 -6.573325 	 5.880461 
H 	 4.864595 	 -5.831390 	 6.459557 
H 	 1.969674 	 5.246298 	 5.171849 
H 	 0.897117 	 4.253539 	 5.414590 
H 	 0.114464 	 -4.884430 	 -4.262313 
H 	 -0.136700 	 -3.702664 	 -5.178013 
H 	 4.317545 	 2.511154 	 -1.643325 
H 	 3.058443 	 1.723271 	 -1.095149 
H 	 7.322545 	 -1.998294 	 -7.186262 
H 	 -6.081515 	 -2.458995 	 -6.854331 
H 	 2.273432 	 0.696832 	 -7.302166 
H 	 2.526551 	 1.770675 	 6.525325 
H 	 1.782065 	 -1.685654 	 -6.047005 
H 	 2.406070 	 -0.542539 	 -5.170369 
H 	 0.972257 	 -6.749809 	 -5.752481 
H 	 0.465202 	 7.517486 	 -4.441995 
H 	 -2.005135 	 4.242129 	 1.797623 
H 	 -1.449684 	 2.865247 	 1.282930 
H 	 1.881230 	 6.917875 	 0.245155 
H 	 0.941591 	 6.142640 	 1.300456 
H 	 5.656351 	 1.737353 	 7.491323 
H 	 4.321045 	 2.159341 	 -6.770218 
H 	 -2.679690 	 5.065854 	 -6.063038 
H 	 -2.233863 	 5.053767 	 7.315853 
H 	 -3.568971 	 1.307114 	 -6.711020 
H 	 -3.395460 	 0.080693 	 -5.731123 
H 	 -2.455106 	 -7.066948 	 1.443245 
H 	 -1.049114 	 -7.066163 	 2.122775 
H 	 -0.671840 	 1.175084 	 2.220616 
H 	 -1.319053 	 0.289666 	 1.166933 
H 	 -6.013279 	 -7.089761 	 1.388105 
H 	 -7.223438 	 -6.138333 	 1.460553 
H 	 -7.218997 	 1.589100 	 -6.707114 
H 	 -6.281183 	 0.466419 	 -7.171745 
H 	 -2.701766 	 -3.647403 	 5.818100 
H 	 -2.127096 	 -2.189833 	 6.092896 
H 	 -4.305243 	 1.813001 	 3.720825 
H 	 -3.615331 	 3.213581 	 4.071936 
H 	 5.306356 	 4.546495 	 -2.955227 
H 	 6.650142 	 4.321319 	 -2.250674 
H 	 -4.001654 	 -5.200789 	 -3.368562 
H 	 -5.300350 	 -5.562587 	 -2.606270 
H 	 1.897751 	 -1.913809 	 -0.952242 
H 	 1.668310 	 -1.495873 	 0.470880 
H 	 -3.493772 	 -4.446796 	 0.291132 
H 	 -4.526125 	 -4.210890 	 1.388513 
H 	 -3.340013 	 -1.836843 	 0.197872 
H 	 -4.590006 	 -2.177165 	 -0.426395 
H 	 3.114212 	 -6.557963 	 3.327441 
H 	 2.144909 	 -5.461186 	 2.747595 
H 	 3.674695 	 -4.233851 	 7.085860 
H 	 3.478262 	 -3.441887 	 -6.457816 
H 	 -7.208375 	 4.308544 	 2.326656 
H 	 7.118246 	 3.186921 	 3.344291 
H 	 -0.870277 	 -2.010590 	 2.142770 
H 	 -0.993784 	 -2.772736 	 0.761956 
H 	 -2.616800 	 6.982565 	 6.149128 
H 	 -1.359749 	 6.274577 	 5.552236 
H 	 6.286854 	 -6.640316 	 -4.448409 
H 	 5.283519 	 -5.992354 	 -3.398177 
H 	 -4.225571 	 7.149557 	 0.342825 
H 	 -4.246792 	 6.343314 	 1.649753 
H 	 -3.437992 	 -0.152879 	 -2.824323 
H 	 -2.927430 	 0.035958 	 -1.486845 
H 	 -6.931774 	 -4.971857 	 -1.551847 
H 	 -5.621001 	 -4.547298 	 -0.921941 
H 	 5.874112 	 -7.324949 	 3.514107 
H 	 5.034911 	 6.433411 	 2.862750 
H 	 1.287175 	 2.570024 	 -0.593191 
H 	 1.151571 	 0.916981 	 -0.539191 
H 	 4.253282 	 6.325338 	 6.101322 
H 	 4.091122 	 6.485774 	 4.661862 
H 	 4.660372 	 3.273729 	 4.787388 
H 	 4.666594 	 1.821085 	 5.398520 
H 	 5.854247 	 6.942051 	 -6.994875 
H 	 5.007603 	 6.232011 	 -6.013095 
H 	 0.168263 	 -2.983281 	 4.415919 
H 	 -1.186236 	 -3.621922 	 4.053296 
H 	 2.939319 	 4.222868 	 3.371540 
H 	 4.068160 	 4.118037 	 2.332425 
H 	 3.337970 	 -3.683048 	 -1.101950 
H 	 4.106109 	 -3.398457 	 0.263710 
H 	 -3.279916 	 -2.289787 	 -4.049923 
H 	 -4.712730 	 -1.557479 	 -3.829921 
H 	 -7.338042 	 4.990810 	 5.806591 
H 	 7.167256 	 5.119936 	 4.342713 
H 	 4.340906 	 -2.644254 	 2.692501 
H 	 4.980287 	 -1.700736 	 1.835392 
H 	 1.518648 	 2.363213 	 2.144148 
H 	 0.718641 	 2.797660 	 3.530358 
H 	 4.561256 	 3.731984 	 0.063823 
H 	 3.440936 	 4.640230 	 -0.603010 
H 	 1.095778 	 7.411465 	 3.210961 
H 	 0.474797 	 6.001657 	 3.549453 
H 	 -3.815393 	 6.079245 	 -4.243997 
H 	 -3.071140 	 7.367954 	 -4.966362 
H 	 -2.154464 	 4.411698 	 -1.787562 
H 	 -1.654835 	 4.818867 	 -0.326229 
H 	 -2.619448 	 -3.483559 	 -1.771412 
H 	 -1.594889 	 -3.740558 	 -2.906487 
H 	 -3.119108 	 1.412446 	 1.213225 
H 	 -3.353336 	 1.532859 	 -0.281660 
H 	 -1.496223 	 -5.040663 	 0.607332 
H 	 -1.006815 	 -4.739223 	 -0.792019 
H 	 -4.152024 	 5.573946 	 3.442650 
H 	 -3.008129 	 5.486957 	 4.504465 
H 	 1.007839 	 -5.752908 	 5.268289 
H 	 -2.840257 	 -6.026046 	 -6.885841 
H 	 -6.031373 	 1.274971 	 -0.119639 
H 	 -6.794694 	 -0.043773 	 0.191750 
H 	 4.974497 	 1.846407 	 1.753795 
H 	 3.860137 	 1.336200 	 0.838869 
H 	 3.204441 	 -6.730620 	 -2.086692 
H 	 2.295104 	 -6.415662 	 -3.409623 
H 	 -1.083451 	 0.120459 	 6.606460 
H 	 -1.250124 	 0.280182 	 5.126905 
H 	 -1.905636 	 -5.416847 	 -5.708128 
O 	 7.254847 	 -0.140746 	 5.113889 
O 	 4.141979 	 -3.851119 	 -4.977446 
O 	 -6.001387 	 -0.969288 	 -2.889017 
O 	 5.304914 	 -0.015427 	 3.219808 
O 	 -6.682669 	 -1.888535 	 0.040934 
O 	 6.225129 	 -2.495529 	 -1.935777 
O 	 -4.321025 	 -4.067529 	 3.520727 
O 	 -6.706859 	 6.193267 	 -2.001680 
O 	 -4.458812 	 -2.788888 	 -6.648252 
O 	 -5.385856 	 3.677679 	 -0.993678 
O 	 2.854363 	 0.751379 	 4.545700 
O 	 -4.015624 	 6.960524 	 -1.304812 
O 	 1.563909 	 4.167264 	 -1.221649 
O 	 6.285193 	 6.586909 	 0.177118 
O 	 -0.612256 	 0.047711 	 -6.126263 
O 	 6.215614 	 0.181958 	 -1.806446 
O 	 2.131708 	 -2.831982 	 -2.609497 
O 	 -6.167705 	 -5.691072 	 -5.813664 
O 	 -3.335259 	 -6.499276 	 6.296667 
O 	 -0.086444 	 7.511282 	 -7.340200 
O 	 -2.740120 	 2.087554 	 6.653914 
O 	 1.147694 	 4.814610 	 -7.329752 
O 	 6.521257 	 -3.058120 	 4.762265 
O 	 -6.019824 	 1.101984 	 3.101747 
O 	 1.070421 	 -4.244753 	 1.700527 
O 	 0.109115 	 0.700994 	 -2.368076 
O 	 -2.644913 	 3.216143 	 -3.000635 
O 	 -0.013358 	 2.378265 	 5.941807 
O 	 7.247529 	 3.762361 	 -5.270210 
O 	 6.322980 	 -6.008007 	 7.459401 
O 	 3.176471 	 -0.482497 	 -3.471230 
O 	 6.636842 	 -5.521007 	 -0.742007 
O 	 5.405087 	 -1.230594 	 7.285268 
O 	 -7.337963 	 6.657153 	 -4.736968 
O 	 -7.244696 	 -3.920474 	 2.209653 
O 	 3.679192 	 -3.330585 	 4.332463 
O 	 -6.226024 	 -4.578916 	 5.960599 
O 	 0.283415 	 -3.267095 	 -6.751312 
O 	 0.111510 	 -6.275183 	 -1.404000 
O 	 4.108346 	 5.947716 	 -3.934638 
O 	 -1.013627 	 2.942494 	 -5.241591 
O 	 3.286396 	 -6.743613 	 0.093499 
O 	 -5.370311 	 4.532797 	 1.602884 
O 	 5.743282 	 -0.242389 	 -4.759645 
O 	 -0.318048 	 6.403912 	 -3.234278 
O 	 1.377251 	 -1.811655 	 5.619199 
O 	 -5.905093 	 1.779494 	 -4.393825 
O 	 -4.897204 	 4.523631 	 -4.053265 
O 	 -1.987918 	 -5.223518 	 4.628902 
O 	 -5.208186 	 7.037334 	 4.422951 
O 	 -4.172476 	 -1.401657 	 2.891164 
O 	 1.798309 	 3.867304 	 -4.551681 
O 	 3.995532 	 -5.698182 	 5.973185 
O 	 1.304352 	 4.772982 	 4.696986 
O 	 -0.141008 	 -3.948399 	 -4.250207 
O 	 3.712822 	 1.772028 	 -1.800047 
O 	 -7.058568 	 -2.528039 	 -6.592374 
O 	 2.262353 	 1.652316 	 7.449139 
O 	 2.078256 	 -0.767625 	 -6.053966 
O 	 0.921289 	 -6.604416 	 -4.764656 
O 	 -1.374384 	 3.821964 	 1.218796 
O 	 1.173448 	 6.190054 	 0.362132 
O 	 5.272654 	 2.087964 	 -6.573041 
O 	 -2.491545 	 4.456269 	 -6.810688 
O 	 -4.072532 	 0.657964 	 -6.190080 
O 	 -1.702968 	 -6.500933 	 1.689908 
O 	 -1.545767 	 0.762196 	 2.000785 
O 	 -6.922294 	 -7.026845 	 1.769117 
O 	 -6.889512 	 1.154195 	 7.382697 
O 	 -2.482229 	 -2.987016 	 6.483634 
O 	 -3.441338 	 2.211861 	 4.071541 
O 	 6.054102 	 3.876191 	 -2.875897 
O 	 -4.635784 	 -5.922809 	 -3.321334 
O 	 1.964411 	 -1.144890 	 -0.363791 
O 	 -4.401197 	 -4.163985 	 0.398846 
O 	 -3.895322 	 -1.465853 	 -0.512489 
O 	 2.209756 	 -6.140884 	 3.437008 
O 	 3.271784 	 -3.393523 	 7.482340 
O 	 6.946320 	 4.028912 	 2.887912 
O 	 -0.893016 	 -1.863745 	 1.155453 
O 	 -2.265535 	 6.068401 	 5.860289 
O 	 5.806615 	 -5.828910 	 -4.177372 
O 	 -4.195068 	 7.305558 	 1.369217 
O 	 -3.151643 	 0.575456 	 -2.263361 
O 	 -6.121328 	 -4.424162 	 -1.754349 
O 	 4.993424 	 7.382985 	 3.070204 
O 	 1.572817 	 1.685171 	 -0.164493 
O 	 3.517772 	 6.398207 	 5.441249 
O 	 5.089010 	 2.705903 	 5.448935 
O 	 5.176491 	 6.234191 	 -6.986306 
O 	 -0.495808 	 -2.967826 	 3.729448 
O 	 3.858576 	 4.440567 	 3.249976 
O 	 4.086962 	 -3.944433 	 -0.523456 
O 	 -3.769511 	 -1.474734 	 -4.195408 
O 	 7.451899 	 5.711446 	 5.124641 
O 	 4.676086 	 -2.622087 	 1.763059 
O 	 1.086756 	 2.052893 	 2.991462 
O 	 4.349147 	 4.654961 	 -0.255479 
O 	 0.420234 	 6.760813 	 2.914248 
O 	 -3.002221 	 6.400913 	 -4.646202 
O 	 -1.922267 	 5.196504 	 -1.205205 
O 	 -2.579710 	 -3.643899 	 -2.727715 
O 	 -3.802088 	 1.679771 	 0.562730 
O 	 -1.516978 	 -4.332309 	 -0.059259 
O 	 -3.469897 	 4.935228 	 3.822588 
O 	 0.386289 	 -5.354498 	 5.910479 
O 	 -6.906529 	 0.958710 	 0.143234 
O 	 4.341616 	 2.129606 	 1.056844 
O 	 3.259085 	 -6.490355 	 -3.081143 
O 	 -1.095177 	 -0.442809 	 5.751157 
O 	 -2.272013 	 -6.217916 	 -6.068321 
K 	 7.431840 	 -3.445001 	 -4.243252 
