333
conformation = 33
H 	 7.230493 	 -1.021915 	 5.260331 
H 	 7.128591 	 0.496802 	 5.995209 
H 	 3.660288 	 -3.994188 	 -4.071055 
H 	 4.789678 	 -4.483498 	 -4.882494 
H 	 -5.803867 	 -0.979537 	 -2.074270 
H 	 -6.212304 	 0.033552 	 -3.194584 
H 	 4.556759 	 0.157366 	 3.880002 
H 	 6.061859 	 0.034954 	 3.689474 
H 	 -6.740200 	 -2.307830 	 0.924898 
H 	 -7.303933 	 -2.225514 	 -0.541397 
H 	 5.445102 	 -2.883689 	 -1.496210 
H 	 6.009643 	 -1.455607 	 -1.762354 
H 	 -3.646416 	 -4.620530 	 4.127141 
H 	 -4.130206 	 -3.194408 	 3.581895 
H 	 -7.266680 	 6.191810 	 -1.164825 
H 	 -5.855210 	 6.614247 	 -1.662905 
H 	 -3.822194 	 -2.574928 	 -7.315306 
H 	 -4.294920 	 -2.005672 	 -6.029710 
H 	 -5.760024 	 4.499867 	 -1.636581 
H 	 -4.534000 	 3.669136 	 -1.330005 
H 	 2.267845 	 -0.050118 	 4.963366 
H 	 2.164581 	 1.240403 	 4.107671 
H 	 -3.176795 	 6.454178 	 -1.297086 
H 	 -3.988318 	 -7.298870 	 -2.038195 
H 	 1.334791 	 4.383903 	 -2.097337 
H 	 1.419482 	 5.005027 	 -0.615806 
H 	 5.682913 	 6.097664 	 0.544527 
H 	 6.878251 	 7.108689 	 0.864172 
H 	 0.235499 	 -0.110249 	 -6.198414 
H 	 -0.723435 	 1.021113 	 -5.693271 
H 	 5.413753 	 0.857947 	 -1.717105 
H 	 6.890644 	 0.723862 	 -1.236205 
H 	 2.410059 	 -1.924305 	 -2.808652 
H 	 1.383348 	 -3.219613 	 -2.978634 
H 	 -5.386476 	 -5.442337 	 -5.201281 
H 	 -6.362879 	 -6.531626 	 -5.739720 
H 	 -2.834302 	 -6.060084 	 5.614577 
H 	 -4.156143 	 -6.836752 	 6.186580 
H 	 -0.852515 	 -7.094940 	 -6.955078 
H 	 0.234064 	 -6.700503 	 6.888926 
H 	 -3.150970 	 2.059033 	 5.890499 
H 	 -2.831791 	 2.978405 	 7.191829 
H 	 0.499692 	 5.635589 	 -7.261580 
H 	 0.615901 	 4.086013 	 7.511692 
H 	 6.934728 	 -3.567734 	 5.522385 
H 	 5.584216 	 -3.060264 	 4.847136 
H 	 -6.474725 	 0.790188 	 2.427599 
H 	 -6.474114 	 0.716748 	 3.960162 
H 	 0.751589 	 -4.206982 	 0.737864 
H 	 0.486897 	 -3.837349 	 2.240116 
H 	 -0.006294 	 -0.208357 	 -1.973165 
H 	 -0.809706 	 0.760046 	 -2.762211 
H 	 -1.999032 	 3.360916 	 -3.744907 
H 	 -2.769813 	 2.315656 	 -2.796705 
H 	 0.361506 	 1.996300 	 6.838338 
H 	 -0.988526 	 2.461451 	 6.245045 
H 	 6.506157 	 3.582681 	 -5.863388 
H 	 6.705871 	 3.703764 	 -4.358088 
H 	 7.032485 	 -5.942477 	 6.771780 
H 	 6.451500 	 -5.233393 	 -6.897547 
H 	 3.242480 	 0.337213 	 -2.794108 
H 	 4.123485 	 -0.426801 	 -3.884023 
H 	 6.427345 	 -6.424954 	 -0.627995 
H 	 5.809480 	 -4.942072 	 -0.473297 
H 	 5.172799 	 -1.199695 	 -6.610987 
H 	 4.688369 	 -2.067736 	 7.159459 
H 	 7.087812 	 5.871281 	 -5.130636 
H 	 -7.167022 	 6.325204 	 -3.844981 
H 	 -6.321336 	 -4.062273 	 2.610980 
H 	 7.108565 	 -3.657160 	 3.003834 
H 	 3.528877 	 -4.120250 	 4.714674 
H 	 2.848643 	 -2.787322 	 4.546236 
H 	 -5.663966 	 -4.753487 	 6.788377 
H 	 -5.517746 	 -4.122784 	 5.370303 
H 	 -0.464479 	 -2.964274 	 -7.218426 
H 	 0.759334 	 -3.929648 	 -7.239181 
H 	 -0.081106 	 -6.722022 	 -0.527534 
H 	 -0.229727 	 -6.790563 	 -2.101334 
H 	 3.958011 	 6.842969 	 -3.636401 
H 	 3.078667 	 5.605439 	 -3.987128 
H 	 -1.169794 	 3.699201 	 -5.650585 
H 	 0.048816 	 3.002428 	 -4.897026 
H 	 3.512329 	 -5.880993 	 0.232759 
H 	 4.108284 	 -7.276721 	 0.470148 
H 	 -5.286366 	 4.422667 	 0.700013 
H 	 -5.018869 	 3.619611 	 1.992621 
H 	 6.246103 	 0.295595 	 -3.898103 
H 	 5.670804 	 0.640473 	 -5.260774 
H 	 -0.539002 	 6.141967 	 -2.327254 
H 	 -1.308962 	 6.497431 	 -3.637608 
H 	 1.545558 	 -1.952438 	 6.533094 
H 	 0.566979 	 -1.298010 	 5.699439 
H 	 -6.658306 	 2.434426 	 -4.575709 
H 	 -5.353340 	 1.610609 	 -5.074199 
H 	 -4.049081 	 3.957824 	 -3.909080 
H 	 -5.617986 	 4.137506 	 -4.289109 
H 	 -0.389120 	 -5.313020 	 5.266969 
H 	 -1.950571 	 -5.586457 	 3.807772 
H 	 -5.932107 	 6.386602 	 4.577877 
H 	 -5.496856 	 -7.223361 	 3.827076 
H 	 -3.482629 	 -0.662537 	 2.789030 
H 	 -5.014241 	 -0.708807 	 2.864469 
H 	 2.213368 	 3.030108 	 -4.833491 
H 	 1.618589 	 4.234853 	 -5.454897 
H 	 3.439373 	 -6.467740 	 5.795944 
H 	 4.677808 	 -5.984616 	 6.692356 
H 	 2.057897 	 5.272029 	 5.343885 
H 	 0.893449 	 4.245851 	 5.405542 
H 	 0.186959 	 -4.897149 	 -4.449669 
H 	 0.190262 	 -3.418928 	 -5.008990 
H 	 4.217702 	 2.567705 	 -1.747604 
H 	 2.960005 	 1.814150 	 -1.184219 
H 	 7.407941 	 -1.820480 	 -7.085691 
H 	 -6.221348 	 -2.602256 	 -6.868897 
H 	 2.137682 	 0.694516 	 -7.259242 
H 	 2.658820 	 1.847048 	 6.665805 
H 	 1.637939 	 -1.525867 	 -6.167030 
H 	 2.368417 	 -0.658213 	 -5.081693 
H 	 0.835389 	 -6.741890 	 -5.632540 
H 	 0.505106 	 -7.226890 	 -4.166175 
H 	 -1.648180 	 4.307557 	 2.148750 
H 	 -1.666024 	 3.014368 	 1.383634 
H 	 1.857218 	 6.899404 	 0.321695 
H 	 0.783279 	 6.208559 	 1.318248 
H 	 5.324992 	 1.883193 	 7.506537 
H 	 4.290982 	 1.945805 	 -6.399013 
H 	 -2.960559 	 5.149602 	 -6.100203 
H 	 -2.421287 	 5.108981 	 7.360228 
H 	 -3.496464 	 0.715454 	 -6.803976 
H 	 -3.485944 	 0.138804 	 -5.321103 
H 	 -2.554232 	 -6.975504 	 1.683487 
H 	 -0.935654 	 -7.188260 	 1.790556 
H 	 -0.756132 	 1.108717 	 2.448861 
H 	 -1.228526 	 -0.040261 	 1.640242 
H 	 -6.001013 	 -6.912342 	 1.761944 
H 	 -7.067084 	 -5.886585 	 1.665172 
H 	 -7.173132 	 1.723815 	 -6.659429 
H 	 -6.193418 	 0.565964 	 -7.030278 
H 	 -2.554377 	 -3.723951 	 5.863639 
H 	 -2.191857 	 -2.159631 	 5.969771 
H 	 -4.218218 	 1.808728 	 3.773863 
H 	 -3.548610 	 3.156328 	 3.784919 
H 	 5.310820 	 4.624438 	 -2.937874 
H 	 6.830121 	 4.247272 	 -2.383204 
H 	 -3.770943 	 -5.326835 	 -3.203774 
H 	 -5.234901 	 -5.381429 	 -2.748239 
H 	 1.918253 	 -1.939989 	 -0.788879 
H 	 1.561316 	 -1.325604 	 0.578466 
H 	 -3.421258 	 -4.155698 	 0.454760 
H 	 -4.650618 	 -3.951676 	 1.391915 
H 	 -3.368796 	 -1.730244 	 0.298523 
H 	 -4.766151 	 -1.949228 	 -0.331280 
H 	 3.125249 	 -6.410242 	 3.260655 
H 	 1.983056 	 -5.584807 	 2.620945 
H 	 2.990154 	 -4.105489 	 7.139359 
H 	 3.655844 	 -3.649951 	 -6.416148 
H 	 -7.366812 	 4.050903 	 2.281229 
H 	 6.990861 	 3.342591 	 3.675665 
H 	 -1.022160 	 -2.055339 	 2.141849 
H 	 -0.956780 	 -2.620620 	 0.636041 
H 	 -2.705868 	 7.044870 	 6.053803 
H 	 -1.294795 	 6.362290 	 6.062727 
H 	 6.321359 	 -6.699810 	 -4.512593 
H 	 5.353152 	 -6.112389 	 -3.458324 
H 	 -4.242717 	 7.234271 	 0.350276 
H 	 -4.579189 	 6.455459 	 1.644314 
H 	 -3.186111 	 -0.235540 	 -2.812594 
H 	 -3.282954 	 0.088978 	 -1.339928 
H 	 -6.950751 	 -4.703605 	 -1.392511 
H 	 -5.589307 	 -4.324663 	 -0.871985 
H 	 6.027322 	 -7.109622 	 3.146675 
H 	 5.037419 	 6.510817 	 2.965309 
H 	 1.382858 	 2.643499 	 -0.441782 
H 	 1.118405 	 1.122159 	 -0.500550 
H 	 4.031740 	 6.258477 	 6.416886 
H 	 4.323068 	 6.663309 	 4.878037 
H 	 4.466331 	 3.381882 	 4.791413 
H 	 4.758962 	 1.943574 	 5.290607 
H 	 5.595675 	 7.095027 	 -7.047876 
H 	 4.572195 	 6.313148 	 -6.191426 
H 	 0.352715 	 -2.677282 	 4.197512 
H 	 -0.905840 	 -3.640137 	 4.374498 
H 	 2.814858 	 4.409987 	 3.465518 
H 	 4.002774 	 4.215847 	 2.537117 
H 	 3.468933 	 -3.531224 	 -1.025678 
H 	 4.214379 	 -3.261746 	 0.434246 
H 	 -3.278967 	 -2.269004 	 -3.712730 
H 	 -4.482326 	 -1.248967 	 -3.788672 
H 	 7.314965 	 4.955671 	 5.778168 
H 	 7.089619 	 5.423230 	 4.348392 
H 	 4.214389 	 -2.864202 	 2.651288 
H 	 4.670555 	 -1.568840 	 1.923212 
H 	 1.477474 	 2.280498 	 2.108473 
H 	 0.677261 	 2.959361 	 3.401631 
H 	 4.491047 	 3.969564 	 0.352192 
H 	 3.471328 	 4.714986 	 -0.545482 
H 	 1.119921 	 7.453544 	 3.164982 
H 	 0.692519 	 6.086221 	 3.665633 
H 	 -3.991609 	 6.016178 	 -4.530092 
H 	 -3.173577 	 7.289659 	 -4.941460 
H 	 -2.090332 	 4.511294 	 -1.765011 
H 	 -1.619693 	 4.756565 	 -0.294784 
H 	 -2.586856 	 -3.463644 	 -1.612758 
H 	 -1.694430 	 -3.625303 	 -2.991968 
H 	 -3.048200 	 1.365771 	 1.297082 
H 	 -3.398999 	 1.588817 	 -0.123957 
H 	 -1.455101 	 -5.092860 	 0.717509 
H 	 -1.269770 	 -4.868127 	 -0.772381 
H 	 -4.146150 	 5.530481 	 3.663539 
H 	 -2.934811 	 5.426955 	 4.600963 
H 	 1.116858 	 -5.037170 	 5.152595 
H 	 -2.920870 	 -5.915874 	 -6.712983 
H 	 -6.047343 	 1.465126 	 0.023296 
H 	 -6.594972 	 0.039272 	 0.208173 
H 	 4.737347 	 1.431924 	 1.770166 
H 	 3.608304 	 1.595363 	 0.829712 
H 	 2.878073 	 -6.506775 	 -2.152115 
H 	 2.441551 	 -6.487250 	 -3.591610 
H 	 -1.082457 	 0.154556 	 6.591996 
H 	 -1.195759 	 0.323748 	 5.035615 
H 	 -2.100928 	 -5.311318 	 -5.563951 
O 	 7.244725 	 -0.047993 	 5.175148 
O 	 4.164464 	 -3.744668 	 -4.911294 
O 	 -5.905160 	 -0.886001 	 -3.009593 
O 	 5.240239 	 -0.028036 	 3.191831 
O 	 -6.749490 	 -1.766625 	 0.115868 
O 	 6.216720 	 -2.423521 	 -1.898022 
O 	 -4.357206 	 -4.141624 	 3.588858 
O 	 -6.670136 	 6.196097 	 -1.943911 
O 	 -4.479481 	 -2.747809 	 -6.579243 
O 	 -5.439980 	 3.797410 	 -1.004325 
O 	 2.792639 	 0.665979 	 4.582635 
O 	 -4.016804 	 6.977454 	 -1.286534 
O 	 1.623743 	 4.203223 	 -1.213384 
O 	 6.288955 	 6.758305 	 0.158742 
O 	 -0.679524 	 0.172101 	 -6.191680 
O 	 6.167524 	 0.278229 	 -1.719178 
O 	 2.132234 	 -2.807046 	 -2.533246 
O 	 -6.138849 	 -5.586246 	 -5.811336 
O 	 -3.311327 	 -6.489796 	 6.449826 
O 	 0.054374 	 7.568001 	 -7.239483 
O 	 -2.847432 	 2.055304 	 6.830077 
O 	 1.139761 	 4.867782 	 -7.185175 
O 	 6.571698 	 -3.028210 	 4.860567 
O 	 -5.990371 	 1.110099 	 3.221085 
O 	 1.129020 	 -4.211344 	 1.623859 
O 	 0.049330 	 0.719216 	 -2.319976 
O 	 -2.644453 	 3.312731 	 -2.973997 
O 	 -0.057538 	 2.297450 	 5.984334 
O 	 7.229107 	 3.692818 	 -5.224764 
O 	 6.253496 	 -5.923252 	 7.347768 
O 	 3.272030 	 -0.410997 	 -3.394744 
O 	 6.665426 	 -5.475583 	 -0.673476 
O 	 5.251809 	 -1.268197 	 7.319178 
O 	 -7.368769 	 6.643833 	 -4.746393 
O 	 -7.160086 	 -3.803718 	 2.204504 
O 	 3.687613 	 -3.257747 	 4.407188 
O 	 -6.221451 	 -4.490224 	 5.979887 
O 	 0.399974 	 -3.151921 	 -6.808724 
O 	 0.065667 	 -6.191025 	 -1.348505 
O 	 4.029725 	 5.866352 	 -3.886511 
O 	 -0.900102 	 2.920375 	 -5.150347 
O 	 3.330097 	 -6.816940 	 0.160589 
O 	 -5.364450 	 4.444759 	 1.669478 
O 	 5.782513 	 -0.120883 	 -4.649819 
O 	 -0.404648 	 6.488895 	 -3.277828 
O 	 1.403886 	 -1.822387 	 5.601728 
O 	 -5.912549 	 1.873939 	 -4.269290 
O 	 -4.829065 	 4.584335 	 -3.981675 
O 	 -2.030049 	 -5.190601 	 4.691452 
O 	 -5.181036 	 7.088961 	 4.516769 
O 	 -4.218038 	 -1.298080 	 2.892251 
O 	 1.854904 	 3.938170 	 -4.534591 
O 	 3.977832 	 -5.737217 	 6.014942 
O 	 1.379951 	 4.825676 	 4.737645 
O 	 -0.082588 	 -3.969663 	 -4.153267 
O 	 3.790157 	 1.725283 	 -1.775399 
O 	 -7.098975 	 -2.403739 	 -6.467264 
O 	 2.140158 	 1.676177 	 7.489871 
O 	 2.096686 	 -0.680971 	 -6.045533 
O 	 1.005715 	 -6.517442 	 -4.709621 
O 	 -1.342023 	 3.929573 	 1.294329 
O 	 1.171287 	 6.234608 	 0.402091 
O 	 5.273799 	 2.099730 	 -6.450040 
O 	 -2.496118 	 4.572118 	 -6.726435 
O 	 -4.031653 	 0.630221 	 -6.005801 
O 	 -1.655426 	 -6.507632 	 1.753743 
O 	 -1.568154 	 0.786876 	 2.001819 
O 	 -6.977224 	 -6.868344 	 1.836602 
O 	 -6.855128 	 1.166371 	 7.466623 
O 	 -2.396250 	 -2.971683 	 6.511484 
O 	 -3.391320 	 2.253896 	 4.083629 
O 	 6.002607 	 3.924396 	 -2.863961 
O 	 -4.571195 	 -5.913771 	 -3.222551 
O 	 1.892016 	 -1.053764 	 -0.319665 
O 	 -4.401281 	 -4.081581 	 0.438263 
O 	 -3.916165 	 -1.461214 	 -0.456727 
O 	 2.218179 	 -6.169609 	 3.410242 
O 	 3.305188 	 -3.291310 	 -7.301989 
O 	 6.860691 	 4.070049 	 2.977965 
O 	 -0.935368 	 -1.777213 	 1.171968 
O 	 -2.234285 	 6.154925 	 5.859382 
O 	 5.813918 	 -5.870782 	 -4.269618 
O 	 -4.247171 	 7.321045 	 1.317528 
O 	 -3.174477 	 0.563334 	 -2.205119 
O 	 -6.058185 	 -4.372816 	 -1.710651 
O 	 5.055264 	 7.474306 	 3.160620 
O 	 1.634557 	 1.797016 	 -0.045323 
O 	 3.634332 	 6.455012 	 5.544983 
O 	 5.014914 	 2.885166 	 5.479950 
O 	 5.122805 	 6.242725 	 -6.956083 
O 	 -0.484838 	 -2.981856 	 3.777396 
O 	 3.762957 	 4.662718 	 3.381111 
O 	 4.163215 	 -3.867000 	 -0.421418 
O 	 -3.641995 	 -1.513986 	 -4.285544 
O 	 -7.396719 	 5.743810 	 5.223719 
O 	 4.637153 	 -2.527673 	 1.793787 
O 	 1.002531 	 2.115611 	 2.966307 
O 	 4.387662 	 4.751395 	 -0.191477 
O 	 0.454572 	 6.717520 	 2.962429 
O 	 -3.055016 	 6.416292 	 -4.603034 
O 	 -1.844105 	 5.219132 	 -1.115167 
O 	 -2.605125 	 -3.581038 	 -2.571667 
O 	 -3.763724 	 1.657100 	 0.744612 
O 	 -1.553350 	 -4.345977 	 0.011746 
O 	 -3.411089 	 4.931721 	 3.855942 
O 	 0.443086 	 -5.289092 	 5.801127 
O 	 -6.883409 	 0.967268 	 0.159144 
O 	 4.366411 	 2.092797 	 1.157992 
O 	 3.229559 	 -6.452277 	 -3.067571 
O 	 -1.027345 	 -0.309924 	 5.763422 
O 	 -2.365605 	 -6.159596 	 -5.929331 
K 	 7.408658 	 -3.435199 	 -4.214769 
