333
conformation = 1
H 	 474.649916 	 16.255131 	 484.136407 
H 	 475.395362 	 17.595228 	 484.824251 
H 	 486.260059 	 13.655331 	 489.527534 
H 	 487.028276 	 12.441599 	 489.063646 
H 	 477.111171 	 16.447333 	 476.939430 
H 	 476.812380 	 17.128087 	 490.444646 
H 	 487.220485 	 17.280941 	 482.551818 
H 	 473.800152 	 17.351995 	 482.879399 
H 	 475.875294 	 14.752077 	 479.690410 
H 	 475.462098 	 15.166782 	 478.217332 
H 	 473.417211 	 14.428542 	 477.568479 
H 	 473.915422 	 15.728761 	 476.940791 
H 	 479.315008 	 12.707122 	 482.530905 
H 	 478.654855 	 14.167560 	 482.244831 
H 	 475.437675 	 8.847712 	 477.610431 
H 	 476.945759 	 8.806692 	 477.143681 
H 	 479.086413 	 14.443360 	 486.498251 
H 	 478.677666 	 15.065381 	 487.782761 
H 	 476.988241 	 6.607077 	 477.245236 
H 	 478.227359 	 5.735929 	 477.535520 
H 	 485.241455 	 17.215262 	 483.845838 
H 	 484.926499 	 18.381894 	 482.865756 
H 	 479.400948 	 8.561606 	 477.523653 
H 	 478.917682 	 9.916834 	 476.839941 
H 	 484.206473 	 6.655813 	 476.732253 
H 	 483.950326 	 7.302221 	 478.247885 
H 	 473.543727 	 8.117547 	 479.002269 
H 	 474.582932 	 9.022486 	 479.935325 
H 	 483.095632 	 17.205811 	 487.969312 
H 	 481.840320 	 18.139285 	 487.987356 
H 	 488.073181 	 17.680505 	 477.187266 
H 	 474.546279 	 17.764471 	 477.872086 
H 	 485.232690 	 15.248596 	 490.808497 
H 	 484.126252 	 14.000193 	 490.712723 
H 	 477.259550 	 11.402126 	 488.692802 
H 	 475.991920 	 10.793002 	 488.091061 
H 	 480.019075 	 11.308351 	 484.556052 
H 	 478.617736 	 10.672280 	 484.673206 
H 	 481.855385 	 10.229385 	 486.901167 
H 	 482.915530 	 10.648269 	 485.809746 
H 	 479.521188 	 19.421251 	 484.689782 
H 	 479.845472 	 5.220663 	 486.108097 
H 	 483.264630 	 7.903598 	 486.445487 
H 	 483.388518 	 6.406869 	 486.237951 
H 	 474.890806 	 13.810404 	 484.342457 
H 	 473.417610 	 14.188131 	 483.779508 
H 	 476.363502 	 18.256262 	 481.094999 
H 	 476.121591 	 17.864770 	 482.550915 
H 	 483.655542 	 13.327411 	 479.725794 
H 	 483.170868 	 13.385454 	 481.209327 
H 	 483.141707 	 16.979524 	 476.607272 
H 	 481.911491 	 17.852329 	 476.458035 
H 	 480.732082 	 5.382259 	 490.005019 
H 	 479.834265 	 4.608910 	 476.203827 
H 	 483.297682 	 19.077179 	 485.446328 
H 	 481.819941 	 19.458713 	 485.064676 
H 	 474.510638 	 5.825833 	 487.808485 
H 	 474.496505 	 6.198434 	 489.314115 
H 	 474.774370 	 11.453857 	 485.601905 
H 	 474.471761 	 11.896980 	 487.032150 
H 	 485.944222 	 17.606656 	 490.755676 
H 	 486.833188 	 16.499878 	 490.040667 
H 	 474.346339 	 10.755436 	 478.060829 
H 	 473.610278 	 12.206322 	 478.002573 
H 	 487.870900 	 16.271174 	 487.076451 
H 	 487.561945 	 15.322966 	 485.949435 
H 	 475.583984 	 8.116525 	 488.740119 
H 	 475.840770 	 8.913700 	 489.977241 
H 	 476.214199 	 13.316464 	 481.826698 
H 	 474.692626 	 13.701271 	 481.570451 
H 	 486.316171 	 12.975401 	 483.474451 
H 	 485.693847 	 14.343417 	 483.703206 
H 	 476.909879 	 12.882431 	 485.752051 
H 	 477.307412 	 12.846400 	 484.259697 
H 	 482.234918 	 13.938233 	 486.500193 
H 	 483.748389 	 13.493299 	 486.624404 
H 	 482.486467 	 10.606989 	 478.365175 
H 	 482.616607 	 10.293220 	 476.807701 
H 	 486.650548 	 9.287132 	 490.050381 
H 	 486.013761 	 7.919073 	 489.895254 
H 	 481.288895 	 5.749396 	 487.814304 
H 	 482.533537 	 5.815331 	 488.838267 
H 	 486.149552 	 11.470752 	 479.046266 
H 	 486.921564 	 10.134562 	 479.281469 
H 	 477.159208 	 6.959161 	 479.553352 
H 	 477.862910 	 6.070552 	 480.599435 
H 	 474.050382 	 17.340263 	 489.804981 
H 	 473.526557 	 17.793805 	 488.472504 
H 	 482.424172 	 8.096212 	 476.463783 
H 	 481.573806 	 8.632320 	 490.185906 
H 	 484.409086 	 15.157650 	 485.432657 
H 	 483.346034 	 15.959854 	 484.777514 
H 	 476.013503 	 4.594335 	 489.257424 
H 	 477.405154 	 18.804302 	 488.554645 
H 	 478.531589 	 6.372717 	 490.275569 
H 	 477.343198 	 6.271029 	 489.193368 
H 	 482.242214 	 11.955416 	 484.312558 
H 	 480.965390 	 11.414256 	 482.784402 
H 	 476.994777 	 8.823930 	 483.967438 
H 	 476.808169 	 9.917595 	 482.936737 
H 	 479.351810 	 16.454102 	 481.679450 
H 	 477.913692 	 16.358632 	 482.262593 
H 	 485.113902 	 5.628831 	 488.732898 
H 	 484.511354 	 6.862710 	 488.490745 
H 	 486.407438 	 10.666769 	 484.792841 
H 	 487.636399 	 11.513510 	 485.317525 
H 	 484.771642 	 7.628247 	 484.109524 
H 	 483.712868 	 6.590124 	 484.357010 
H 	 482.944558 	 12.365019 	 489.588256 
H 	 482.570888 	 13.478954 	 488.501576 
H 	 487.068362 	 4.886561 	 477.227545 
H 	 485.784200 	 18.972937 	 477.836065 
H 	 475.144042 	 15.229057 	 486.568589 
H 	 476.641283 	 14.875214 	 486.901254 
H 	 485.118664 	 17.939986 	 486.592109 
H 	 485.287521 	 18.982817 	 485.379998 
H 	 484.625299 	 15.511026 	 487.809194 
H 	 485.215421 	 16.708495 	 488.648646 
H 	 483.724558 	 10.500475 	 488.073610 
H 	 483.225957 	 9.802283 	 489.389053 
H 	 480.610890 	 6.466677 	 480.672343 
H 	 481.250673 	 5.190925 	 480.202909 
H 	 484.588938 	 9.206088 	 479.089268 
H 	 483.702785 	 8.507513 	 480.227738 
H 	 473.484566 	 19.027420 	 486.355552 
H 	 487.122067 	 4.588973 	 486.831552 
H 	 480.087480 	 7.372034 	 487.748340 
H 	 480.482904 	 7.352511 	 486.204372 
H 	 479.179713 	 18.601013 	 487.073509 
H 	 479.344714 	 17.350864 	 487.966578 
H 	 480.239801 	 10.202568 	 480.372962 
H 	 481.685154 	 10.203458 	 481.144397 
H 	 482.104919 	 18.405305 	 481.125176 
H 	 481.468664 	 17.563864 	 480.079082 
H 	 476.747090 	 10.149770 	 480.269183 
H 	 475.581499 	 11.084384 	 480.351892 
H 	 475.533452 	 18.806321 	 487.108262 
H 	 476.523661 	 17.756133 	 486.613132 
H 	 480.124132 	 13.609761 	 484.647766 
H 	 480.633524 	 15.118424 	 484.982716 
H 	 478.453364 	 19.151883 	 482.651064 
H 	 479.130343 	 5.520636 	 482.971108 
H 	 488.063957 	 6.825284 	 490.799772 
H 	 474.555576 	 6.642698 	 476.691833 
H 	 478.813085 	 12.052197 	 490.405427 
H 	 477.493352 	 11.698628 	 476.241254 
H 	 484.636471 	 15.339578 	 477.890024 
H 	 484.396621 	 15.667981 	 479.381238 
H 	 479.275052 	 12.718597 	 479.096922 
H 	 478.276847 	 12.970097 	 480.278323 
H 	 479.495019 	 15.501117 	 479.103210 
H 	 478.155491 	 15.137459 	 478.447531 
H 	 485.845521 	 10.734776 	 482.252464 
H 	 484.908368 	 11.809564 	 481.630517 
H 	 486.563021 	 13.102180 	 486.009856 
H 	 486.266519 	 13.771765 	 487.345168 
H 	 475.632427 	 6.744592 	 481.311244 
H 	 474.996161 	 5.485536 	 482.174679 
H 	 481.964450 	 15.250193 	 481.032392 
H 	 481.670789 	 14.500530 	 479.641329 
H 	 480.128599 	 9.291047 	 485.026543 
H 	 481.373286 	 8.623813 	 484.368651 
H 	 474.102765 	 10.564922 	 489.445187 
H 	 487.983083 	 11.211263 	 490.407181 
H 	 478.633345 	 9.576284 	 479.300434 
H 	 478.582434 	 8.719786 	 480.534844 
H 	 479.249673 	 17.174223 	 490.862708 
H 	 479.845075 	 17.180978 	 477.347221 
H 	 475.778214 	 12.389591 	 477.461786 
H 	 477.151435 	 12.821758 	 477.978791 
H 	 473.662260 	 9.901414 	 482.453921 
H 	 487.764902 	 8.757058 	 481.710654 
H 	 484.055367 	 4.818365 	 478.270889 
H 	 483.899747 	 18.131166 	 478.324652 
H 	 486.937122 	 8.578030 	 485.024062 
H 	 486.717102 	 8.785135 	 483.453373 
H 	 487.493210 	 5.617222 	 483.653176 
H 	 487.374260 	 19.091282 	 484.201885 
H 	 473.772244 	 9.258167 	 486.765722 
H 	 487.802857 	 8.456159 	 487.766884 
H 	 482.894228 	 14.215260 	 483.411055 
H 	 481.598049 	 13.571114 	 482.779381 
H 	 485.673717 	 6.585970 	 482.244713 
H 	 486.791896 	 6.364489 	 481.246004 
H 	 486.115125 	 13.568772 	 477.769971 
H 	 486.828206 	 13.846585 	 479.208890 
H 	 479.486814 	 14.951635 	 489.807420 
H 	 478.106469 	 15.680529 	 490.014905 
H 	 475.431473 	 7.438270 	 484.740236 
H 	 475.127712 	 7.402776 	 483.246994 
H 	 487.069418 	 14.525204 	 481.581080 
H 	 487.889081 	 15.506620 	 480.720185 
H 	 484.237624 	 4.664422 	 481.050901 
H 	 483.539750 	 5.120900 	 482.471580 
H 	 487.290329 	 6.077809 	 478.900310 
H 	 486.189715 	 6.997271 	 478.278678 
H 	 483.864942 	 9.773730 	 482.140985 
H 	 483.259694 	 8.390113 	 482.442838 
H 	 478.929209 	 8.462287 	 489.565884 
H 	 479.680958 	 9.640091 	 488.870010 
H 	 480.616063 	 6.739940 	 477.139236 
H 	 481.055771 	 7.174516 	 478.550082 
H 	 480.067590 	 13.845167 	 477.078649 
H 	 481.147106 	 13.472475 	 490.821963 
H 	 479.612653 	 18.700816 	 480.093113 
H 	 479.401109 	 18.813796 	 478.583695 
H 	 481.235478 	 12.150226 	 479.501232 
H 	 481.847132 	 12.518807 	 478.151062 
H 	 478.592328 	 7.866973 	 482.435956 
H 	 479.685958 	 7.820566 	 483.483046 
H 	 483.658893 	 11.343635 	 484.195901 
H 	 479.986123 	 11.206143 	 486.898767 
H 	 476.749784 	 18.507066 	 478.751845 
H 	 476.004434 	 17.229928 	 479.117746 
H 	 487.744465 	 19.130584 	 480.633751 
H 	 486.691071 	 18.511154 	 479.791114 
H 	 485.939024 	 10.514200 	 476.753014 
H 	 485.134337 	 10.834932 	 490.466426 
H 	 481.639395 	 17.173716 	 485.529597 
H 	 481.483145 	 17.487806 	 483.992842 
H 	 480.861418 	 11.895249 	 488.027257 
O 	 475.128711 	 17.084786 	 484.011367 
O 	 486.906470 	 13.385446 	 488.821688 
O 	 476.737937 	 16.276039 	 490.949960 
O 	 488.087092 	 17.247584 	 482.129609 
O 	 476.091310 	 15.338581 	 478.934251 
O 	 474.090405 	 14.742985 	 476.974697 
O 	 478.458028 	 13.209539 	 482.412980 
O 	 476.045935 	 8.549579 	 476.895177 
O 	 478.316648 	 14.461805 	 487.147885 
O 	 477.393057 	 6.005072 	 477.918253 
O 	 485.635506 	 18.022840 	 483.459511 
O 	 478.746720 	 9.313447 	 477.598804 
O 	 484.316859 	 6.514208 	 477.681565 
O 	 474.151861 	 8.904916 	 479.076501 
O 	 482.167292 	 17.280333 	 487.698460 
O 	 474.079521 	 17.425214 	 477.084825 
O 	 484.900154 	 14.416179 	 476.271247 
O 	 476.592821 	 11.536943 	 487.998849 
O 	 479.417033 	 10.757067 	 485.164681 
O 	 482.648604 	 9.846980 	 486.446251 
O 	 480.060943 	 19.358750 	 485.520350 
O 	 483.914666 	 7.153083 	 486.451205 
O 	 474.373385 	 14.196146 	 483.653779 
O 	 476.739175 	 18.351905 	 481.984561 
O 	 483.821657 	 13.006212 	 480.633375 
O 	 482.889884 	 17.955045 	 476.525272 
O 	 480.125234 	 5.541764 	 490.801759 
O 	 482.757997 	 4.761860 	 484.839805 
O 	 475.122717 	 6.142580 	 488.520897 
O 	 474.212674 	 11.228479 	 486.394609 
O 	 485.925886 	 16.765070 	 490.314176 
O 	 474.491717 	 11.711680 	 478.145997 
O 	 488.205018 	 16.032877 	 486.184889 
O 	 475.432007 	 9.027919 	 489.070637 
O 	 475.504536 	 13.305141 	 481.123761 
O 	 486.445478 	 13.910439 	 483.220126 
O 	 476.536101 	 12.654040 	 484.871243 
O 	 483.020661 	 13.960588 	 487.060014 
O 	 482.882802 	 10.965996 	 477.488418 
O 	 486.899559 	 8.322659 	 489.856289 
O 	 481.722081 	 5.298956 	 488.547402 
O 	 486.046897 	 10.537865 	 478.984541 
O 	 477.396601 	 6.913694 	 480.492363 
O 	 473.604186 	 16.986591 	 489.024542 
O 	 482.457161 	 8.732848 	 490.585513 
O 	 484.139539 	 15.458875 	 484.523842 
O 	 476.860728 	 19.002682 	 489.400384 
O 	 477.849249 	 6.865293 	 489.741429 
O 	 480.799098 	 12.034327 	 483.515527 
O 	 477.553878 	 9.389758 	 483.305157 
O 	 478.612057 	 15.830813 	 481.802216 
O 	 484.548232 	 6.209373 	 489.257073 
O 	 486.761373 	 11.567917 	 484.871822 
O 	 484.048106 	 7.113624 	 483.584361 
O 	 482.610656 	 13.312646 	 489.552021 
O 	 486.470885 	 19.036391 	 477.095138 
O 	 475.718726 	 14.697232 	 487.183763 
O 	 485.066426 	 18.908023 	 486.348398 
O 	 484.839380 	 16.466212 	 487.753129 
O 	 483.671841 	 10.635823 	 489.025972 
O 	 481.396266 	 6.164334 	 480.109481 
O 	 483.945435 	 8.544553 	 479.263186 
O 	 488.044185 	 19.332486 	 487.212243 
O 	 480.284480 	 6.797221 	 486.978893 
O 	 478.682108 	 17.923708 	 487.571480 
O 	 481.064732 	 10.761167 	 480.581280 
O 	 481.236028 	 18.014023 	 480.903190 
O 	 475.855096 	 10.194534 	 480.668132 
O 	 475.874421 	 18.406600 	 486.275972 
O 	 480.271565 	 14.266657 	 485.390035 
O 	 479.310406 	 19.459962 	 482.978872 
O 	 473.923236 	 6.230884 	 490.935554 
O 	 478.120967 	 11.331172 	 490.463005 
O 	 484.752364 	 16.094853 	 478.534369 
O 	 478.364969 	 13.068521 	 479.307372 
O 	 478.885272 	 15.777441 	 478.386511 
O 	 484.984047 	 11.121626 	 482.359042 
O 	 486.026971 	 13.838852 	 486.347258 
O 	 474.837614 	 6.376439 	 481.769926 
O 	 481.885006 	 15.374379 	 480.061550 
O 	 480.513126 	 8.406558 	 484.777586 
O 	 473.685738 	 11.439039 	 489.650348 
O 	 478.582935 	 9.649924 	 480.284679 
O 	 479.634887 	 17.836554 	 476.632490 
O 	 476.636486 	 12.804605 	 477.138690 
O 	 487.750696 	 9.713532 	 481.959148 
O 	 484.329721 	 18.924542 	 478.728746 
O 	 486.263679 	 8.746432 	 484.334500 
O 	 487.879598 	 5.014900 	 484.354563 
O 	 487.963776 	 8.593920 	 486.823687 
O 	 482.264315 	 14.289009 	 482.627769 
O 	 486.661578 	 6.743270 	 482.121771 
O 	 486.836447 	 13.285861 	 478.359231 
O 	 478.967127 	 15.796530 	 489.631954 
O 	 475.301498 	 8.049449 	 484.012259 
O 	 487.455628 	 14.620546 	 480.666123 
O 	 483.870202 	 19.297956 	 481.902385 
O 	 487.110644 	 6.979431 	 478.642472 
O 	 483.171100 	 9.124540 	 481.810934 
O 	 479.795215 	 8.755331 	 489.151678 
O 	 480.828993 	 7.545442 	 477.678647 
O 	 480.199915 	 13.592845 	 476.138570 
O 	 478.951959 	 18.948984 	 479.430093 
O 	 481.265522 	 12.929157 	 478.834378 
O 	 479.289546 	 7.289459 	 482.705567 
O 	 483.146931 	 11.886742 	 484.845612 
O 	 475.855288 	 18.203123 	 479.057889 
O 	 487.109458 	 19.401686 	 479.948128 
O 	 486.035958 	 10.760807 	 490.735737 
O 	 481.657699 	 16.784233 	 484.664841 
O 	 480.516645 	 11.021176 	 487.706827 
K 	 475.306576 	 13.811502 	 489.563261 
