333
conformation = 45
H 	 7.215007 	 -0.987706 	 5.283159 
H 	 7.134733 	 0.266865 	 6.055321 
H 	 3.640465 	 -3.984050 	 -4.124947 
H 	 4.868787 	 -4.446748 	 -5.037528 
H 	 -5.944902 	 -0.997990 	 -2.175669 
H 	 -6.136046 	 0.095362 	 -3.245141 
H 	 4.480562 	 0.208122 	 3.688810 
H 	 5.994959 	 -0.107454 	 3.650490 
H 	 -6.793558 	 -2.316449 	 0.886967 
H 	 -7.282551 	 -2.273393 	 -0.559236 
H 	 5.425385 	 -2.838322 	 -1.611546 
H 	 5.963376 	 -1.442366 	 -1.869620 
H 	 -3.627971 	 -4.503333 	 4.076874 
H 	 -4.209104 	 -3.225578 	 3.549734 
H 	 -7.313183 	 6.277984 	 -1.213695 
H 	 -5.745104 	 6.419561 	 -1.756427 
H 	 -3.839974 	 -2.660653 	 -7.344785 
H 	 -4.237113 	 -2.124416 	 -5.933452 
H 	 -5.809042 	 4.603768 	 -1.617093 
H 	 -4.554072 	 3.657719 	 -1.348228 
H 	 2.190855 	 -0.127602 	 4.834746 
H 	 2.158922 	 1.147290 	 4.000512 
H 	 -3.193573 	 6.436802 	 -1.363405 
H 	 -4.071752 	 -7.171427 	 -2.034142 
H 	 1.350028 	 4.345441 	 -2.169615 
H 	 1.381543 	 4.988815 	 -0.748293 
H 	 5.673283 	 6.122406 	 0.457329 
H 	 6.993170 	 7.135344 	 0.713365 
H 	 0.223642 	 -0.058584 	 -6.262737 
H 	 -0.716041 	 1.099367 	 -5.931565 
H 	 5.371182 	 0.858081 	 -1.564533 
H 	 6.900660 	 0.784519 	 -1.371768 
H 	 2.462619 	 -1.991040 	 -2.938493 
H 	 1.291171 	 -3.066991 	 -3.078791 
H 	 -5.362859 	 -5.366084 	 -5.329086 
H 	 -6.187444 	 -6.528350 	 -5.805060 
H 	 -2.863334 	 -5.963796 	 5.643382 
H 	 -4.195055 	 -6.700775 	 6.137630 
H 	 -0.770818 	 -7.017778 	 -6.944391 
H 	 0.331226 	 -6.776590 	 6.898441 
H 	 -3.232198 	 2.036318 	 5.876125 
H 	 -3.106244 	 2.925234 	 7.186635 
H 	 0.624242 	 5.684177 	 -7.290262 
H 	 0.552268 	 4.184173 	 7.462624 
H 	 6.952143 	 -3.688444 	 5.395339 
H 	 5.617951 	 -3.094102 	 4.840859 
H 	 -6.526534 	 1.005759 	 2.411781 
H 	 -6.536502 	 0.712566 	 3.943314 
H 	 0.603298 	 -4.388189 	 0.733486 
H 	 0.505506 	 -3.848888 	 2.088109 
H 	 -0.050582 	 -0.210680 	 -1.928833 
H 	 -0.861644 	 0.824968 	 -2.789645 
H 	 -1.906788 	 3.265867 	 -3.737851 
H 	 -2.732255 	 2.339757 	 -2.862564 
H 	 0.476722 	 2.036273 	 6.731917 
H 	 -1.030942 	 2.356300 	 6.280883 
H 	 6.411442 	 3.555378 	 -5.863408 
H 	 6.805126 	 3.596955 	 -4.399391 
H 	 7.075425 	 -6.050332 	 6.728325 
H 	 6.434184 	 -5.279632 	 -6.965502 
H 	 3.316152 	 0.339228 	 -2.877837 
H 	 4.222321 	 -0.284247 	 -3.864702 
H 	 6.360488 	 -6.375439 	 -0.473365 
H 	 5.881788 	 -4.881005 	 -0.434745 
H 	 5.268275 	 -1.302492 	 -6.651563 
H 	 4.578917 	 -2.073083 	 7.121136 
H 	 7.002229 	 5.942236 	 -5.296595 
H 	 -7.138336 	 6.322335 	 -3.878158 
H 	 -6.254774 	 -4.069614 	 2.560432 
H 	 7.308802 	 -3.533032 	 2.997723 
H 	 3.626800 	 -4.127994 	 4.841586 
H 	 2.853066 	 -2.746292 	 4.604878 
H 	 -5.655184 	 -4.803265 	 6.670438 
H 	 -5.603802 	 -4.209712 	 5.206922 
H 	 -0.472422 	 -2.941236 	 -7.209122 
H 	 0.601700 	 -3.925903 	 7.489582 
H 	 0.224371 	 -6.959143 	 -0.735260 
H 	 -0.176448 	 -6.726062 	 -2.163343 
H 	 3.766528 	 6.641049 	 -3.443216 
H 	 3.136727 	 5.378169 	 -4.093068 
H 	 -1.097860 	 3.628095 	 -5.717465 
H 	 0.082586 	 3.057362 	 -4.820532 
H 	 3.557454 	 -5.938474 	 0.097709 
H 	 4.216679 	 -7.301574 	 0.369693 
H 	 -5.334576 	 4.142698 	 0.612758 
H 	 -4.980396 	 3.635629 	 2.101130 
H 	 6.241889 	 0.134837 	 -3.830784 
H 	 5.739019 	 0.713070 	 -5.231332 
H 	 -0.732221 	 6.165877 	 -2.459310 
H 	 -1.345739 	 6.478281 	 -3.781193 
H 	 1.647745 	 -2.227324 	 6.404839 
H 	 0.587213 	 -1.286563 	 5.644264 
H 	 -6.554485 	 2.393203 	 -4.873950 
H 	 -5.157166 	 1.535571 	 -4.863988 
H 	 -4.160434 	 3.844165 	 -3.969611 
H 	 -5.579930 	 4.180175 	 -4.371334 
H 	 -0.444858 	 -5.339364 	 5.253782 
H 	 -1.997378 	 -5.565564 	 3.750072 
H 	 -6.065654 	 6.617444 	 4.654217 
H 	 -5.287368 	 -7.154587 	 3.767308 
H 	 -3.458737 	 -0.687473 	 2.741513 
H 	 -4.995750 	 -0.637784 	 2.681117 
H 	 2.328842 	 3.086858 	 -4.564636 
H 	 1.776316 	 4.332147 	 -5.524691 
H 	 3.531330 	 -6.641947 	 5.736843 
H 	 4.657771 	 -5.944136 	 6.566023 
H 	 2.135788 	 5.304392 	 5.238466 
H 	 0.963560 	 4.141212 	 5.279738 
H 	 0.351938 	 -4.883174 	 -4.367683 
H 	 0.112391 	 -3.427001 	 -4.977859 
H 	 4.099632 	 2.615610 	 -1.995692 
H 	 2.983390 	 1.756961 	 -1.239595 
H 	 7.261574 	 -1.792077 	 -7.115723 
H 	 -6.247007 	 -2.565571 	 -6.883667 
H 	 2.243065 	 0.734220 	 -7.136255 
H 	 2.637056 	 1.719837 	 6.614349 
H 	 1.833838 	 -1.617774 	 -6.293319 
H 	 2.368509 	 -0.623535 	 -5.125886 
H 	 0.784633 	 -6.840023 	 -5.646271 
H 	 0.556599 	 -7.146064 	 -4.136520 
H 	 -1.611657 	 4.445561 	 2.103338 
H 	 -1.787037 	 3.093247 	 1.185677 
H 	 1.870380 	 6.884267 	 0.351078 
H 	 0.880634 	 6.260498 	 1.335769 
H 	 5.329935 	 2.113479 	 7.467661 
H 	 4.280676 	 2.027319 	 -6.237307 
H 	 -3.047589 	 5.145609 	 -6.100247 
H 	 -2.605291 	 5.128723 	 7.296196 
H 	 -3.469172 	 0.581768 	 -6.793571 
H 	 -3.513828 	 0.057470 	 -5.365304 
H 	 -2.528475 	 -6.931427 	 1.738101 
H 	 -1.049427 	 7.573273 	 1.843074 
H 	 -0.866960 	 1.206320 	 2.476491 
H 	 -1.282278 	 -0.152400 	 1.685668 
H 	 -6.019412 	 -7.006321 	 1.697127 
H 	 -7.149411 	 -5.831215 	 1.683946 
H 	 -7.167986 	 1.728396 	 -6.709228 
H 	 -6.088432 	 0.674289 	 -7.064094 
H 	 -2.273985 	 -3.764266 	 5.834126 
H 	 -2.197847 	 -2.148765 	 5.906321 
H 	 -4.195132 	 1.799880 	 3.761599 
H 	 -3.434770 	 3.219073 	 3.838860 
H 	 5.425120 	 4.704577 	 -2.985211 
H 	 6.734166 	 4.304746 	 -2.397852 
H 	 -3.650364 	 -5.455114 	 -3.183836 
H 	 -5.142082 	 -5.344686 	 -2.710082 
H 	 1.866436 	 -1.889483 	 -0.877964 
H 	 1.428651 	 -1.282826 	 0.521150 
H 	 -3.412536 	 -4.142315 	 0.335416 
H 	 -4.565497 	 -3.949721 	 1.362432 
H 	 -3.452120 	 -1.680301 	 0.329631 
H 	 -4.792271 	 -1.777010 	 -0.196093 
H 	 3.139052 	 -6.374292 	 3.168063 
H 	 1.910280 	 -5.684064 	 2.522371 
H 	 3.047881 	 -4.001825 	 6.995268 
H 	 3.564194 	 -3.616848 	 -6.479195 
H 	 -7.278393 	 3.978189 	 2.355104 
H 	 6.859875 	 3.326151 	 3.621277 
H 	 -0.991868 	 -2.260619 	 1.956114 
H 	 -1.121152 	 -2.486964 	 0.501771 
H 	 -2.692985 	 7.015043 	 6.054748 
H 	 -1.282808 	 6.416263 	 6.077237 
H 	 6.379691 	 -6.715776 	 -4.627372 
H 	 5.220635 	 -6.139158 	 -3.634159 
H 	 -4.158349 	 7.270121 	 0.250620 
H 	 -4.542286 	 6.389217 	 1.410513 
H 	 -3.085626 	 -0.103076 	 -3.035194 
H 	 -3.594933 	 -0.067580 	 -1.558064 
H 	 -6.892449 	 -4.550682 	 -1.286288 
H 	 -5.402020 	 -4.098882 	 -1.001968 
H 	 5.989760 	 -7.152553 	 2.856818 
H 	 5.052773 	 6.540912 	 2.902643 
H 	 1.458699 	 2.727578 	 -0.414604 
H 	 1.115535 	 1.131924 	 -0.481355 
H 	 4.147291 	 6.171088 	 6.361600 
H 	 4.504067 	 6.644603 	 5.072086 
H 	 4.576967 	 3.585179 	 4.782232 
H 	 4.820711 	 2.039831 	 5.045602 
H 	 5.437313 	 7.149503 	 -7.003980 
H 	 4.465543 	 6.305573 	 -6.273239 
H 	 0.299647 	 -2.621406 	 4.234136 
H 	 -0.808869 	 -3.801251 	 4.220985 
H 	 2.740366 	 4.682365 	 3.510450 
H 	 3.971005 	 4.088846 	 2.669927 
H 	 3.520529 	 -3.502839 	 -1.041913 
H 	 4.228972 	 -3.243659 	 0.369460 
H 	 -3.273237 	 -2.204622 	 -3.665502 
H 	 -4.424483 	 -1.060096 	 -3.953872 
H 	 7.228444 	 5.015265 	 5.775246 
H 	 7.209279 	 5.414495 	 4.335166 
H 	 4.186619 	 -2.923765 	 2.522334 
H 	 4.650312 	 -1.589474 	 2.094861 
H 	 1.236403 	 2.183703 	 1.961069 
H 	 0.766995 	 3.030646 	 3.199100 
H 	 4.450177 	 3.957759 	 0.320786 
H 	 3.495871 	 4.748246 	 -0.616758 
H 	 1.076883 	 7.445687 	 3.031912 
H 	 0.723021 	 6.012881 	 3.593536 
H 	 -3.951122 	 5.906341 	 -4.503121 
H 	 -3.159170 	 7.264144 	 -5.026126 
H 	 -2.085572 	 4.514928 	 -1.766831 
H 	 -1.693498 	 4.787631 	 -0.257892 
H 	 -2.465945 	 -3.302533 	 -1.682050 
H 	 -1.721647 	 -3.647541 	 -2.899000 
H 	 -2.953202 	 1.279017 	 1.266818 
H 	 -3.425163 	 1.686133 	 -0.134638 
H 	 -1.639855 	 -5.100010 	 0.685744 
H 	 -1.270874 	 -4.912507 	 -0.799720 
H 	 -4.151203 	 5.442136 	 3.762632 
H 	 -2.926004 	 5.226693 	 4.575158 
H 	 1.107446 	 -5.012815 	 4.998745 
H 	 -2.887869 	 -6.060972 	 -6.787313 
H 	 -6.086430 	 1.555058 	 0.030922 
H 	 -6.564551 	 0.016769 	 0.128601 
H 	 4.698389 	 1.299668 	 1.698969 
H 	 3.504072 	 1.817249 	 0.716042 
H 	 2.740161 	 -6.446193 	 -2.289944 
H 	 2.562348 	 -6.461057 	 -3.846130 
H 	 -1.155244 	 0.179669 	 6.501388 
H 	 -1.159211 	 0.471394 	 5.100563 
H 	 -2.224341 	 -5.260315 	 -5.546444 
O 	 7.246442 	 -0.025795 	 5.106116 
O 	 4.186273 	 -3.730153 	 -4.913185 
O 	 -5.880894 	 -0.876035 	 -3.139688 
O 	 5.199504 	 -0.042549 	 3.095127 
O 	 -6.778905 	 -1.737111 	 0.083919 
O 	 6.207515 	 -2.417106 	 -1.944597 
O 	 -4.393999 	 -4.194605 	 3.559623 
O 	 -6.676480 	 6.169604 	 -1.978934 
O 	 -4.497662 	 -2.754593 	 -6.632499 
O 	 -5.458733 	 3.835565 	 -1.093326 
O 	 2.774702 	 0.607758 	 4.549544 
O 	 -4.015997 	 6.968262 	 -1.357627 
O 	 1.652732 	 4.207197 	 -1.276115 
O 	 6.289034 	 6.815194 	 0.073194 
O 	 -0.723235 	 0.205473 	 -6.300719 
O 	 6.145704 	 0.306797 	 -1.766406 
O 	 2.139739 	 -2.838709 	 -2.552440 
O 	 -6.124385 	 -5.566890 	 -5.876952 
O 	 -3.320378 	 -6.513217 	 6.450925 
O 	 0.109120 	 7.565765 	 -7.271257 
O 	 -2.878472 	 2.020141 	 6.830493 
O 	 1.129155 	 4.864162 	 -7.173132 
O 	 6.589845 	 -3.024315 	 4.828842 
O 	 -5.980344 	 1.079054 	 3.210569 
O 	 1.169167 	 -4.223613 	 1.523069 
O 	 0.012125 	 0.694304 	 -2.375258 
O 	 -2.643914 	 3.326424 	 -3.032839 
O 	 -0.091532 	 2.279589 	 5.935797 
O 	 7.198931 	 3.653665 	 -5.275745 
O 	 6.242598 	 -5.904513 	 7.231770 
O 	 3.297608 	 -0.417407 	 -3.450929 
O 	 6.648880 	 -5.483014 	 -0.714786 
O 	 5.177859 	 -1.306344 	 7.268991 
O 	 -7.404214 	 6.628302 	 -4.817330 
O 	 -7.116871 	 -3.783582 	 2.139722 
O 	 3.688539 	 -3.243150 	 4.357949 
O 	 -6.218222 	 -4.482716 	 5.932530 
O 	 0.439767 	 -3.108173 	 -6.907884 
O 	 0.025021 	 -6.169495 	 -1.385040 
O 	 4.000255 	 5.812371 	 -3.943909 
O 	 -0.847488 	 2.882263 	 -5.166280 
O 	 3.343872 	 -6.871446 	 0.117569 
O 	 -5.371213 	 4.384617 	 1.625865 
O 	 5.796172 	 -0.078583 	 -4.667380 
O 	 -0.465669 	 6.508408 	 -3.356787 
O 	 1.403215 	 -1.820981 	 5.521408 
O 	 -5.926776 	 1.876513 	 -4.272850 
O 	 -4.808029 	 4.609332 	 -4.015971 
O 	 -2.049300 	 -5.193640 	 4.645894 
O 	 -5.166465 	 7.088597 	 4.475262 
O 	 -4.237080 	 -1.267608 	 2.823483 
O 	 1.859917 	 3.926577 	 -4.620139 
O 	 3.925063 	 -5.752715 	 5.956983 
O 	 1.401277 	 4.822266 	 4.695766 
O 	 -0.058166 	 -3.999417 	 -4.177059 
O 	 3.825264 	 1.696029 	 -1.840435 
O 	 -7.129791 	 -2.365187 	 -6.499396 
O 	 2.093545 	 1.677727 	 7.447871 
O 	 2.083452 	 -0.675994 	 -6.102038 
O 	 1.034304 	 -6.499448 	 -4.748465 
O 	 -1.324893 	 3.951935 	 1.288699 
O 	 1.155648 	 6.242004 	 0.342686 
O 	 5.244128 	 2.057784 	 -6.473056 
O 	 -2.492042 	 4.613836 	 -6.762409 
O 	 -4.030093 	 0.593395 	 -5.993003 
O 	 -1.632419 	 -6.523678 	 1.708057 
O 	 -1.555393 	 0.757134 	 1.943155 
O 	 -6.994169 	 -6.790715 	 1.821198 
O 	 -6.842410 	 1.153565 	 7.448307 
O 	 -2.353041 	 -2.978730 	 6.444548 
O 	 -3.380240 	 2.237009 	 4.013680 
O 	 5.964728 	 3.914279 	 -2.926072 
O 	 -4.526695 	 -5.926972 	 -3.262419 
O 	 1.849375 	 -1.034696 	 -0.360781 
O 	 -4.412818 	 -4.069617 	 0.404993 
O 	 -3.916583 	 -1.478737 	 -0.507552 
O 	 2.223019 	 -6.191393 	 3.326206 
O 	 3.296497 	 -3.275718 	 -7.337081 
O 	 6.807105 	 4.072629 	 2.945118 
O 	 -0.963602 	 -1.755444 	 1.120019 
O 	 -2.189103 	 6.165347 	 5.814053 
O 	 5.833946 	 -5.928605 	 -4.380341 
O 	 -4.291992 	 7.310415 	 1.243738 
O 	 -3.167305 	 0.537941 	 -2.240112 
O 	 -6.050544 	 -4.377118 	 -1.765385 
O 	 5.080272 	 7.494959 	 3.131912 
O 	 1.657388 	 1.836006 	 -0.048801 
O 	 3.650322 	 6.456228 	 5.543018 
O 	 4.964860 	 2.930705 	 5.417581 
O 	 5.091202 	 6.220324 	 -7.015028 
O 	 -0.479509 	 -3.008814 	 3.715032 
O 	 3.729879 	 4.728803 	 3.351184 
O 	 4.193786 	 -3.865076 	 -0.438596 
O 	 -3.580514 	 -1.555768 	 -4.367182 
O 	 -7.401784 	 5.724482 	 5.194831 
O 	 4.609555 	 -2.512039 	 1.733958 
O 	 0.955971 	 2.117746 	 2.884873 
O 	 4.400502 	 4.761566 	 -0.217465 
O 	 0.462759 	 6.675442 	 2.917602 
O 	 -3.082462 	 6.399630 	 -4.656822 
O 	 -1.804208 	 5.208833 	 -1.157706 
O 	 -2.628949 	 -3.582044 	 -2.600526 
O 	 -3.771993 	 1.641503 	 0.760778 
O 	 -1.562785 	 -4.388524 	 -0.010470 
O 	 -3.375871 	 4.901404 	 3.776745 
O 	 0.468433 	 -5.274151 	 5.687383 
O 	 -6.863953 	 0.948145 	 0.110264 
O 	 4.368554 	 2.046227 	 1.154366 
O 	 3.214639 	 -6.450349 	 -3.109687 
O 	 -1.002632 	 -0.310943 	 5.696559 
O 	 -2.412432 	 -6.139989 	 -5.933521 
K 	 7.394313 	 -3.447938 	 -4.259124 
