333
conformation = 79
H 	 7.138341 	 -1.021618 	 5.203506 
H 	 -7.407002 	 0.220604 	 5.983941 
H 	 3.573865 	 -3.678252 	 -3.998304 
H 	 4.569499 	 -4.587727 	 -4.878254 
H 	 -6.271469 	 -0.935530 	 -2.476399 
H 	 -6.146349 	 0.147789 	 -3.532810 
H 	 4.093766 	 -0.065659 	 3.310770 
H 	 5.567474 	 -0.031098 	 3.743829 
H 	 -6.957941 	 -2.413280 	 0.820125 
H 	 7.308464 	 -1.878678 	 -0.488822 
H 	 5.485540 	 -2.799693 	 -1.371617 
H 	 5.883672 	 -1.407197 	 -1.878656 
H 	 -3.619865 	 -4.485142 	 3.853793 
H 	 -4.503181 	 -3.273483 	 3.582607 
H 	 -7.379089 	 6.663155 	 -1.443270 
H 	 -5.859041 	 6.505063 	 -1.950111 
H 	 -3.914183 	 -3.002144 	 7.502826 
H 	 -4.091595 	 -2.666684 	 -5.858340 
H 	 -6.200483 	 4.536400 	 -1.456500 
H 	 -4.791340 	 3.844991 	 -1.794260 
H 	 2.354832 	 -0.390587 	 4.787504 
H 	 2.016097 	 0.817698 	 3.964288 
H 	 -3.329976 	 6.350203 	 -1.515295 
H 	 -4.138240 	 -7.241339 	 -2.215315 
H 	 1.259151 	 4.273367 	 -2.195979 
H 	 1.232442 	 4.943161 	 -0.784578 
H 	 5.882352 	 6.054152 	 -0.188450 
H 	 6.672880 	 7.054479 	 0.890563 
H 	 -0.047414 	 0.027068 	 -6.119527 
H 	 -0.901332 	 1.241623 	 -6.230150 
H 	 5.225629 	 0.765849 	 -1.542446 
H 	 6.729436 	 0.572233 	 -1.069891 
H 	 2.573126 	 -2.123707 	 -2.911487 
H 	 1.352756 	 -3.063213 	 -3.096320 
H 	 -5.255297 	 -5.242192 	 -5.539589 
H 	 -6.303120 	 -6.382458 	 -5.506597 
H 	 -2.888705 	 -5.993257 	 5.804336 
H 	 -4.265975 	 -6.608441 	 6.103779 
H 	 -0.638770 	 -6.918976 	 -6.905753 
H 	 0.517431 	 -6.669503 	 7.032471 
H 	 -3.333562 	 2.013950 	 5.944935 
H 	 -3.390940 	 2.788391 	 7.323795 
H 	 0.818046 	 5.805016 	 -6.946115 
H 	 0.345936 	 4.453311 	 7.373145 
H 	 7.049964 	 -3.559266 	 5.401008 
H 	 5.631322 	 -3.009205 	 4.935011 
H 	 -6.474717 	 1.586713 	 2.624930 
H 	 -6.692953 	 0.643768 	 3.890928 
H 	 0.427418 	 -4.728615 	 1.066264 
H 	 0.826167 	 -3.869094 	 2.157559 
H 	 0.072859 	 -0.094436 	 -1.782462 
H 	 -1.065986 	 0.804830 	 -2.233369 
H 	 -2.051060 	 2.932223 	 -3.778552 
H 	 -2.894259 	 2.413867 	 -2.620955 
H 	 0.496573 	 1.822462 	 6.358354 
H 	 -1.013916 	 2.265811 	 6.540321 
H 	 6.320065 	 3.101211 	 -5.717926 
H 	 6.811125 	 3.650423 	 -4.406339 
H 	 6.968855 	 -5.906783 	 6.488401 
H 	 6.564821 	 -5.457894 	 -6.985710 
H 	 3.330051 	 0.321119 	 -2.990020 
H 	 4.243733 	 -0.338762 	 -3.942495 
H 	 6.158008 	 -6.288292 	 -0.442068 
H 	 5.738324 	 -4.776320 	 -0.622735 
H 	 5.134967 	 -1.050923 	 -6.711420 
H 	 4.315844 	 -2.072382 	 7.318662 
H 	 7.113023 	 5.812547 	 -5.309599 
H 	 -7.178136 	 6.487505 	 -3.976314 
H 	 -6.209262 	 -3.903621 	 2.612964 
H 	 7.318489 	 -3.357485 	 2.931645 
H 	 3.486073 	 -4.128964 	 4.747984 
H 	 3.087023 	 -2.662089 	 4.874483 
H 	 -5.739137 	 -4.348358 	 6.769749 
H 	 -5.609608 	 -4.709812 	 5.187499 
H 	 -0.469057 	 -2.633383 	 -7.263856 
H 	 0.372613 	 -3.752778 	 7.217663 
H 	 0.419013 	 -6.965394 	 -1.022044 
H 	 -0.402311 	 -6.562081 	 -2.255857 
H 	 3.403901 	 6.306931 	 -3.358097 
H 	 3.254226 	 4.919490 	 -4.076056 
H 	 -1.289654 	 3.311775 	 -5.695387 
H 	 0.065870 	 3.368437 	 -4.924797 
H 	 3.448126 	 -6.035300 	 -0.080185 
H 	 4.243829 	 -7.282943 	 0.015715 
H 	 -5.509673 	 3.801204 	 0.733461 
H 	 -4.647729 	 3.882575 	 2.013282 
H 	 6.101463 	 0.114667 	 -3.632616 
H 	 6.041050 	 0.794904 	 -5.062599 
H 	 -1.004489 	 6.074269 	 -2.606802 
H 	 -1.509383 	 6.492169 	 -3.973714 
H 	 1.496157 	 -2.341282 	 6.193381 
H 	 0.604453 	 -1.151822 	 5.679758 
H 	 -6.480768 	 2.165804 	 -4.910323 
H 	 -5.046879 	 1.529889 	 -4.513295 
H 	 -4.381645 	 3.841349 	 -3.750955 
H 	 -5.610202 	 4.322210 	 -4.551865 
H 	 -0.484046 	 -5.243301 	 5.242898 
H 	 -1.938460 	 -5.935777 	 4.095157 
H 	 -6.064088 	 7.126409 	 4.951357 
H 	 -5.201295 	 -7.204864 	 3.735821 
H 	 -3.422114 	 -0.876871 	 2.996297 
H 	 -4.899459 	 -0.402234 	 2.977303 
H 	 2.432815 	 3.096654 	 -4.466080 
H 	 1.640307 	 4.054768 	 -5.627960 
H 	 3.631259 	 -6.689698 	 5.810615 
H 	 4.671719 	 -5.586942 	 5.918865 
H 	 1.987176 	 5.269464 	 5.433848 
H 	 1.104272 	 3.918089 	 5.141571 
H 	 0.372153 	 -4.924250 	 -4.154783 
H 	 -0.164881 	 -3.721241 	 -5.070010 
H 	 4.077750 	 2.549880 	 -2.214562 
H 	 3.188683 	 1.885555 	 -1.100457 
H 	 7.039835 	 -2.101539 	 -7.240009 
H 	 -6.375673 	 -2.068776 	 -6.791091 
H 	 1.951382 	 0.854563 	 -6.874072 
H 	 2.474562 	 1.327693 	 6.666076 
H 	 2.557347 	 -1.248187 	 -6.587013 
H 	 2.438088 	 -0.544139 	 -5.162564 
H 	 1.011413 	 -6.728277 	 -5.652735 
H 	 0.531790 	 -7.235918 	 -4.276092 
H 	 -1.776575 	 4.669370 	 2.012185 
H 	 -1.953127 	 3.304081 	 1.178487 
H 	 1.987305 	 6.649674 	 0.380855 
H 	 0.801851 	 6.269576 	 1.268112 
H 	 5.162959 	 2.368638 	 -7.358311 
H 	 4.128934 	 2.011955 	 -6.200186 
H 	 -2.633157 	 5.380898 	 -6.014165 
H 	 -2.377706 	 5.241813 	 7.377217 
H 	 -3.619995 	 1.034894 	 -6.510382 
H 	 -3.551035 	 -0.358899 	 -5.876457 
H 	 -2.566719 	 -7.038317 	 1.705302 
H 	 -1.126367 	 -7.165296 	 2.353016 
H 	 -1.065021 	 1.207426 	 2.584710 
H 	 -1.111705 	 -0.099139 	 1.624140 
H 	 -6.250033 	 -6.930039 	 1.481838 
H 	 -7.302840 	 -5.673589 	 1.645246 
H 	 -7.399663 	 1.589719 	 -6.711395 
H 	 -5.971247 	 0.953628 	 -6.905311 
H 	 -2.042160 	 -3.694051 	 5.734110 
H 	 -2.085438 	 -2.074791 	 5.984280 
H 	 -4.284657 	 1.835176 	 3.732976 
H 	 -3.384903 	 3.136007 	 4.058201 
H 	 5.369007 	 4.753787 	 -3.149738 
H 	 6.186646 	 4.197350 	 -2.050722 
H 	 -3.677997 	 -5.295689 	 -3.151375 
H 	 -5.100973 	 -5.410877 	 -2.697311 
H 	 1.722482 	 -1.618325 	 -1.112107 
H 	 1.023751 	 -1.416966 	 0.276350 
H 	 -3.615210 	 -4.184733 	 0.001097 
H 	 -4.196991 	 -4.163000 	 1.441688 
H 	 -3.645426 	 -0.973751 	 0.252668 
H 	 -4.903083 	 -1.656757 	 -0.209304 
H 	 3.088078 	 -6.465318 	 3.157760 
H 	 2.054083 	 -5.477092 	 2.525679 
H 	 3.590814 	 -4.102144 	 7.204490 
H 	 3.299358 	 -3.312063 	 -6.428711 
H 	 -7.287853 	 3.989545 	 2.702147 
H 	 6.330079 	 3.228054 	 3.347245 
H 	 -0.852895 	 -2.437580 	 1.807944 
H 	 -1.421071 	 -2.327893 	 0.389972 
H 	 -2.573322 	 7.003912 	 6.027971 
H 	 -1.144863 	 6.442055 	 5.993767 
H 	 6.445840 	 -6.850359 	 -4.675379 
H 	 5.067772 	 -6.376428 	 -4.072941 
H 	 -4.308896 	 7.395215 	 0.240841 
H 	 -4.399333 	 6.298012 	 1.272135 
H 	 -3.181395 	 0.312119 	 -3.228192 
H 	 -3.638488 	 -0.293551 	 -1.871916 
H 	 -6.580704 	 -4.964346 	 -1.261112 
H 	 -5.603046 	 -3.815211 	 -1.081090 
H 	 5.952030 	 -7.237293 	 2.606535 
H 	 4.723801 	 6.702917 	 2.798171 
H 	 1.512302 	 2.773736 	 -0.449374 
H 	 1.306431 	 1.166601 	 -0.314048 
H 	 4.249127 	 6.309197 	 6.486681 
H 	 4.329682 	 6.206121 	 5.016985 
H 	 4.543101 	 3.971444 	 5.080604 
H 	 4.632665 	 2.445771 	 4.619588 
H 	 5.257029 	 7.122537 	 -6.956399 
H 	 4.649985 	 6.100617 	 -6.084514 
H 	 -0.008463 	 -2.913417 	 4.444353 
H 	 -1.184252 	 -3.768648 	 3.814522 
H 	 2.781484 	 4.946361 	 3.711683 
H 	 3.743738 	 4.011578 	 2.823086 
H 	 3.346391 	 -3.747650 	 -0.848856 
H 	 4.209249 	 -3.247065 	 0.368867 
H 	 -2.996890 	 -2.329508 	 -3.854342 
H 	 -4.486993 	 -1.608622 	 -4.068471 
H 	 7.115375 	 5.263360 	 6.086350 
H 	 7.210823 	 5.029077 	 4.536095 
H 	 4.133048 	 -2.982632 	 2.542080 
H 	 4.891288 	 -1.713355 	 2.217104 
H 	 0.791033 	 1.959704 	 1.786051 
H 	 0.858868 	 3.112046 	 2.807532 
H 	 4.546085 	 3.877106 	 0.182036 
H 	 3.562405 	 4.749035 	 -0.626869 
H 	 1.125654 	 7.251797 	 3.097397 
H 	 0.378186 	 5.897577 	 3.581926 
H 	 -3.845681 	 5.874739 	 -4.181662 
H 	 -3.374394 	 7.281198 	 -4.862033 
H 	 -2.007205 	 4.361350 	 -1.566096 
H 	 -1.474298 	 5.037259 	 -0.261164 
H 	 -2.660096 	 -2.994860 	 -1.793923 
H 	 -1.718193 	 -3.660519 	 -2.736863 
H 	 -3.010829 	 1.224429 	 1.339311 
H 	 -3.619872 	 1.597717 	 -0.040725 
H 	 -1.642676 	 -5.091857 	 0.873295 
H 	 -1.077265 	 -4.989126 	 -0.567146 
H 	 -4.064130 	 5.435232 	 3.896082 
H 	 -2.616172 	 5.238459 	 4.252198 
H 	 1.018488 	 -5.769867 	 4.953158 
H 	 -2.988003 	 -6.270363 	 -6.707768 
H 	 -5.949205 	 1.323148 	 0.047212 
H 	 -6.772103 	 0.034476 	 0.393968 
H 	 4.771281 	 1.205597 	 1.576306 
H 	 3.369224 	 1.820004 	 1.106690 
H 	 2.546123 	 -6.113547 	 -2.387845 
H 	 2.631934 	 -6.444528 	 -3.894087 
H 	 -0.985799 	 -0.110278 	 6.588669 
H 	 -0.789850 	 0.552086 	 5.376977 
H 	 -2.736966 	 -5.155060 	 -5.676581 
O 	 7.179789 	 -0.038246 	 5.061421 
O 	 4.211408 	 -3.705782 	 -4.777458 
O 	 -5.906041 	 -0.821342 	 -3.352369 
O 	 5.006943 	 -0.067726 	 2.968612 
O 	 -6.853189 	 -1.719495 	 0.115871 
O 	 6.144770 	 -2.376021 	 -1.946034 
O 	 -4.543349 	 -4.252318 	 3.614406 
O 	 -6.747933 	 6.105459 	 -1.969454 
O 	 -4.569880 	 -2.803503 	 -6.666143 
O 	 -5.526528 	 3.871227 	 -1.146921 
O 	 2.695970 	 0.499754 	 4.573780 
O 	 -4.079030 	 6.977974 	 -1.439669 
O 	 1.688959 	 4.264942 	 -1.334946 
O 	 6.273723 	 6.944326 	 -0.015016 
O 	 -0.887110 	 0.288624 	 -6.503247 
O 	 6.082111 	 0.402801 	 -1.789204 
O 	 2.134124 	 -2.901502 	 -2.503234 
O 	 -6.101216 	 -5.530357 	 -5.944031 
O 	 -3.422082 	 -6.480903 	 6.536826 
O 	 0.189374 	 7.588015 	 -7.234805 
O 	 -3.011625 	 1.952193 	 6.909872 
O 	 1.076844 	 4.859497 	 -7.016643 
O 	 6.615964 	 -2.980550 	 4.814907 
O 	 -6.014673 	 1.011472 	 3.278917 
O 	 1.212379 	 -4.266108 	 1.363104 
O 	 -0.119226 	 0.639928 	 -2.399117 
O 	 -2.652496 	 3.302864 	 -3.054467 
O 	 -0.232114 	 2.375461 	 5.942407 
O 	 7.072548 	 3.590634 	 -5.325614 
O 	 6.226778 	 -5.881249 	 7.093617 
O 	 3.310347 	 -0.462973 	 -3.547633 
O 	 6.535730 	 -5.419516 	 -0.691536 
O 	 4.993920 	 -1.356408 	 7.277299 
O 	 7.357484 	 6.652895 	 -4.885952 
O 	 -7.020539 	 -3.705450 	 2.142338 
O 	 3.666070 	 -3.243292 	 4.380472 
O 	 -6.261982 	 -4.510114 	 5.912564 
O 	 0.404884 	 -3.016631 	 -7.050655 
O 	 -0.070718 	 -6.177158 	 -1.373716 
O 	 3.881403 	 5.678848 	 -3.963377 
O 	 -0.752228 	 2.831578 	 -5.059664 
O 	 3.358603 	 -6.969785 	 0.108720 
O 	 -5.471055 	 4.216890 	 1.650791 
O 	 5.794555 	 0.002395 	 -4.559391 
O 	 -0.717928 	 6.580002 	 -3.436276 
O 	 1.338585 	 -1.786105 	 5.434616 
O 	 -5.947007 	 1.850358 	 -4.140351 
O 	 -4.879324 	 4.682739 	 -3.992990 
O 	 -2.143088 	 -5.170552 	 4.651352 
O 	 -5.148618 	 7.129513 	 4.510551 
O 	 -4.312449 	 -1.181850 	 2.723660 
O 	 1.855809 	 3.912858 	 -4.665642 
O 	 3.667855 	 -5.700787 	 5.926273 
O 	 1.385501 	 4.812136 	 4.736081 
O 	 -0.048641 	 -4.022378 	 -4.080684 
O 	 3.808258 	 1.687331 	 -1.907249 
O 	 -7.296650 	 -2.237101 	 -6.511362 
O 	 2.016176 	 1.700791 	 7.468564 
O 	 1.976033 	 -0.683119 	 -6.068053 
O 	 1.056191 	 -6.471604 	 -4.715654 
O 	 -1.363361 	 4.040467 	 1.411340 
O 	 1.082645 	 6.341844 	 0.288865 
O 	 5.066153 	 2.025003 	 -6.455934 
O 	 -2.557298 	 4.684554 	 -6.734955 
O 	 -4.075329 	 0.510443 	 -5.831319 
O 	 -1.677226 	 -6.583134 	 1.774129 
O 	 -1.581566 	 0.687501 	 1.936349 
O 	 -7.070551 	 -6.600969 	 1.936199 
O 	 -6.824837 	 1.139004 	 -7.369953 
O 	 -2.231487 	 -2.960934 	 6.391084 
O 	 -3.392814 	 2.167660 	 4.011704 
O 	 5.828859 	 3.918181 	 -2.936279 
O 	 -4.406991 	 -5.955200 	 -3.230797 
O 	 1.644570 	 -0.960448 	 -0.331034 
O 	 -4.469626 	 -4.063568 	 0.481601 
O 	 -3.973096 	 -1.502587 	 -0.496734 
O 	 2.169677 	 -6.215285 	 3.194778 
O 	 3.168329 	 -3.264696 	 7.515356 
O 	 6.664827 	 4.101504 	 2.974568 
O 	 -1.083998 	 -1.734272 	 1.119853 
O 	 -2.073863 	 6.161400 	 5.859529 
O 	 5.830868 	 -6.062143 	 -4.562087 
O 	 -4.471778 	 7.276581 	 1.208341 
O 	 -3.164813 	 0.503634 	 -2.244316 
O 	 -6.055826 	 -4.308221 	 -1.798778 
O 	 5.098748 	 7.535713 	 3.166454 
O 	 1.657371 	 1.970566 	 0.094420 
O 	 3.656680 	 6.451052 	 5.693095 
O 	 4.820957 	 3.061451 	 5.371044 
O 	 4.946285 	 6.189029 	 -6.984768 
O 	 -0.494282 	 -3.084859 	 3.598255 
O 	 3.683913 	 4.863790 	 3.324984 
O 	 4.200883 	 -3.868008 	 -0.399467 
O 	 -3.471073 	 -1.620645 	 -4.371570 
O 	 -7.513011 	 5.697445 	 5.239431 
O 	 4.477179 	 -2.452687 	 1.751300 
O 	 0.785983 	 2.114472 	 2.769496 
O 	 4.401972 	 4.781095 	 -0.129965 
O 	 0.414465 	 6.579719 	 2.897834 
O 	 -3.128389 	 6.386773 	 -4.684690 
O 	 -1.766244 	 5.216326 	 -1.175695 
O 	 -2.693948 	 -3.552236 	 -2.581840 
O 	 -3.841855 	 1.666014 	 0.898385 
O 	 -1.653361 	 -4.493739 	 0.071699 
O 	 -3.316736 	 4.840778 	 3.686467 
O 	 0.484485 	 -5.233853 	 5.563265 
O 	 -6.851928 	 0.979378 	 0.120147 
O 	 4.294790 	 1.997364 	 1.281161 
O 	 3.157261 	 -6.442678 	 -3.099319 
O 	 -1.023167 	 -0.361119 	 5.662352 
O 	 -2.550979 	 -6.066171 	 -5.843992 
K 	 7.313331 	 -3.467299 	 -4.216687 
