333
conformation = 6
H 	 6.795966 	 -1.058472 	 5.289548 
H 	 7.510892 	 0.289085 	 5.943543 
H 	 3.469325 	 -3.650353 	 -4.273245 
H 	 4.355682 	 -4.806336 	 -4.777411 
H 	 -5.677926 	 -0.830356 	 -2.007837 
H 	 -5.983865 	 -0.136896 	 -3.305649 
H 	 4.442176 	 -0.049020 	 3.730702 
H 	 5.976855 	 0.064981 	 3.934024 
H 	 -6.896531 	 -2.520173 	 0.796108 
H 	 7.529426 	 -2.115266 	 -0.659736 
H 	 5.526570 	 -2.871228 	 -1.287783 
H 	 6.028647 	 -1.570518 	 -1.897366 
H 	 -3.444372 	 -4.605257 	 3.651101 
H 	 -4.062580 	 -3.158151 	 3.385920 
H 	 -7.353436 	 6.370772 	 -1.301517 
H 	 -5.831702 	 6.485364 	 -1.775127 
H 	 -3.673802 	 -2.815072 	 -7.295863 
H 	 -4.113568 	 -2.164377 	 -6.034986 
H 	 -5.818776 	 4.238249 	 -1.623616 
H 	 -4.528565 	 3.357353 	 -1.349987 
H 	 2.434299 	 -0.059294 	 4.954822 
H 	 2.110819 	 1.085994 	 4.017096 
H 	 -3.361033 	 6.140404 	 -1.332949 
H 	 -3.900282 	 -7.386494 	 -2.062693 
H 	 1.411975 	 4.289924 	 -2.147014 
H 	 1.177087 	 4.880265 	 -0.637695 
H 	 5.700554 	 5.766379 	 0.112700 
H 	 6.712224 	 6.730150 	 1.035506 
H 	 0.320901 	 -0.094397 	 -5.866391 
H 	 -0.932989 	 0.879314 	 -5.761772 
H 	 5.295287 	 0.468820 	 -1.713631 
H 	 6.646026 	 0.481667 	 -0.977207 
H 	 2.438579 	 -2.007305 	 -3.038685 
H 	 1.417509 	 -3.282233 	 -3.067691 
H 	 -5.457933 	 -5.845044 	 -5.118007 
H 	 -6.791308 	 -6.491973 	 -5.699834 
H 	 -2.788162 	 -5.968726 	 5.640031 
H 	 -4.177745 	 -6.663873 	 5.781688 
H 	 -0.918790 	 -7.083948 	 -6.938691 
H 	 0.165474 	 -6.645493 	 6.908952 
H 	 -3.223955 	 2.178723 	 5.797792 
H 	 -2.899484 	 2.812751 	 7.233288 
H 	 0.460437 	 5.518517 	 -7.317962 
H 	 0.614883 	 3.965540 	 7.327997 
H 	 6.998517 	 -3.481310 	 5.491401 
H 	 5.515566 	 -3.081561 	 4.865949 
H 	 -6.432757 	 0.885016 	 2.201825 
H 	 -6.614011 	 0.578628 	 3.712461 
H 	 0.864490 	 -3.979042 	 0.822230 
H 	 0.338556 	 -3.889710 	 2.293273 
H 	 0.328612 	 -0.284181 	 -2.240746 
H 	 -0.839139 	 0.597451 	 -2.508932 
H 	 -2.058223 	 2.977998 	 -3.750034 
H 	 -2.897324 	 2.247113 	 -2.756813 
H 	 0.458454 	 1.765662 	 6.579207 
H 	 -0.939728 	 2.154602 	 6.155899 
H 	 6.689362 	 3.420901 	 -5.994014 
H 	 6.601442 	 3.825570 	 -4.486605 
H 	 6.845798 	 -5.869603 	 6.687119 
H 	 6.570140 	 -5.383013 	 -6.764036 
H 	 3.216763 	 0.374547 	 -3.005485 
H 	 4.068191 	 -0.766406 	 -3.751772 
H 	 6.490580 	 -6.529059 	 -0.882414 
H 	 5.756579 	 -5.105155 	 -0.859985 
H 	 5.070304 	 -1.056835 	 -6.730565 
H 	 4.773597 	 -1.989918 	 7.073136 
H 	 -7.278935 	 5.715284 	 -5.082687 
H 	 -6.971574 	 6.521829 	 -3.864011 
H 	 -6.574145 	 -3.988389 	 2.885677 
H 	 6.857239 	 -3.622570 	 2.731586 
H 	 3.519970 	 -4.261966 	 4.558004 
H 	 2.919813 	 -2.945354 	 4.739887 
H 	 -5.833306 	 -4.451601 	 6.884754 
H 	 -5.468540 	 -4.386463 	 5.366324 
H 	 -0.530455 	 -3.329083 	 -7.310173 
H 	 0.960884 	 -3.834630 	 -7.195387 
H 	 -0.305309 	 -6.634581 	 -0.601152 
H 	 -0.207782 	 -7.005480 	 -2.082945 
H 	 3.911623 	 6.891580 	 -3.796917 
H 	 3.177553 	 5.581252 	 -3.902763 
H 	 -1.493349 	 3.398550 	 -6.008830 
H 	 -0.216813 	 3.344871 	 -4.937172 
H 	 3.406931 	 -5.803143 	 0.190229 
H 	 4.093491 	 -7.164925 	 0.385646 
H 	 -5.562862 	 4.592882 	 0.677839 
H 	 -4.933848 	 3.666860 	 1.721195 
H 	 6.186292 	 0.106506 	 -3.980355 
H 	 5.668028 	 0.487104 	 -5.375970 
H 	 -0.370098 	 5.732039 	 -2.444493 
H 	 -1.236712 	 6.227208 	 -3.584308 
H 	 1.628973 	 -2.078150 	 6.499872 
H 	 0.530813 	 -1.315990 	 5.814056 
H 	 -6.741174 	 2.193830 	 -4.476689 
H 	 -5.422081 	 1.555516 	 -5.211113 
H 	 -4.234677 	 3.972662 	 -3.554767 
H 	 -5.452302 	 3.874692 	 -4.571823 
H 	 -0.509653 	 -5.345332 	 5.385680 
H 	 -1.798194 	 -5.844073 	 3.866357 
H 	 -5.771590 	 6.425142 	 4.976154 
H 	 -5.934133 	 7.503521 	 4.048290 
H 	 -3.429350 	 -0.823468 	 2.774040 
H 	 -4.888490 	 -0.933168 	 3.315963 
H 	 2.365249 	 3.148122 	 -5.062627 
H 	 1.675100 	 4.478033 	 -5.282891 
H 	 3.598424 	 -6.589420 	 5.886182 
H 	 4.889186 	 -5.830964 	 6.452302 
H 	 1.965427 	 5.202191 	 5.184621 
H 	 0.915875 	 4.203327 	 5.447817 
H 	 0.138104 	 -4.927674 	 -4.240153 
H 	 -0.166923 	 -3.771508 	 -5.239155 
H 	 4.296179 	 2.456109 	 -1.656454 
H 	 3.053146 	 1.676152 	 -1.093172 
H 	 7.327382 	 -2.067558 	 -7.184187 
H 	 -6.089094 	 -2.463497 	 -6.875172 
H 	 2.301546 	 0.652433 	 -7.265221 
H 	 2.521355 	 1.718861 	 6.505736 
H 	 1.814577 	 -1.737331 	 -6.024438 
H 	 2.415814 	 -0.584297 	 -5.175614 
H 	 0.969607 	 -6.788617 	 -5.733389 
H 	 0.457250 	 7.443270 	 -4.427276 
H 	 -2.061663 	 4.154283 	 1.783735 
H 	 -1.472080 	 2.818852 	 1.290716 
H 	 1.861038 	 6.852128 	 0.217855 
H 	 0.939787 	 6.097483 	 1.297034 
H 	 5.634028 	 1.710071 	 7.484404 
H 	 4.326859 	 2.145000 	 -6.852028 
H 	 -2.671624 	 4.989120 	 -6.073177 
H 	 -2.251040 	 4.989340 	 7.313143 
H 	 -3.584473 	 1.279503 	 -6.702168 
H 	 -3.390383 	 0.034342 	 -5.762407 
H 	 -2.485735 	 -7.106975 	 1.446199 
H 	 -1.061317 	 -7.099471 	 2.175598 
H 	 -0.667363 	 1.124820 	 2.214144 
H 	 -1.313271 	 0.273648 	 1.182069 
H 	 -6.023720 	 -7.128487 	 1.374928 
H 	 -7.207380 	 -6.182408 	 1.449465 
H 	 -7.232232 	 1.544101 	 -6.682322 
H 	 -6.268959 	 0.434952 	 -7.176597 
H 	 -2.686294 	 -3.695105 	 5.792655 
H 	 -2.127586 	 -2.207568 	 6.097110 
H 	 -4.323476 	 1.802843 	 3.726671 
H 	 -3.630344 	 3.154272 	 4.076813 
H 	 5.289097 	 4.481544 	 -2.975450 
H 	 6.682090 	 4.277003 	 -2.213205 
H 	 -3.983272 	 -5.239180 	 -3.380932 
H 	 -5.302934 	 -5.603046 	 -2.608120 
H 	 1.884573 	 -1.962113 	 -0.971495 
H 	 1.651514 	 -1.579892 	 0.483948 
H 	 -3.499129 	 -4.519985 	 0.259876 
H 	 -4.513267 	 -4.280539 	 1.400346 
H 	 -3.317980 	 -1.851847 	 0.200796 
H 	 -4.597753 	 -2.204033 	 -0.432733 
H 	 3.084221 	 -6.578204 	 3.338393 
H 	 2.148224 	 -5.488161 	 2.736892 
H 	 3.737648 	 -4.255498 	 7.092760 
H 	 3.486059 	 -3.493819 	 -6.434965 
H 	 -7.207265 	 4.307429 	 2.366766 
H 	 7.114230 	 3.102821 	 3.338162 
H 	 -0.844613 	 -2.047463 	 2.162887 
H 	 -1.033475 	 -2.821650 	 0.745040 
H 	 -2.617736 	 6.913289 	 6.141024 
H 	 -1.368423 	 6.233688 	 5.515106 
H 	 6.271825 	 -6.700527 	 -4.416907 
H 	 5.263305 	 -6.045590 	 -3.402197 
H 	 -4.193380 	 7.125436 	 0.349220 
H 	 -4.219797 	 6.303633 	 1.641828 
H 	 -3.464593 	 -0.162137 	 -2.847593 
H 	 -2.922362 	 -0.047462 	 -1.515776 
H 	 -6.952321 	 -4.979841 	 -1.507002 
H 	 -5.638638 	 -4.551826 	 -0.945402 
H 	 5.869386 	 -7.367050 	 3.547002 
H 	 5.018244 	 6.376421 	 2.842294 
H 	 1.290516 	 2.496298 	 -0.601087 
H 	 1.154457 	 0.867541 	 -0.541436 
H 	 4.227239 	 6.251490 	 6.102445 
H 	 4.042255 	 6.424233 	 4.624047 
H 	 4.681368 	 3.237821 	 4.769112 
H 	 4.640545 	 1.772657 	 5.369722 
H 	 5.871914 	 6.884572 	 -7.003581 
H 	 5.027229 	 6.149002 	 -6.038283 
H 	 0.151860 	 -3.048395 	 4.455027 
H 	 -1.180096 	 -3.679664 	 3.986789 
H 	 2.928451 	 4.182066 	 3.356830 
H 	 4.048533 	 4.037305 	 2.335452 
H 	 3.338956 	 -3.727444 	 -1.112437 
H 	 4.090443 	 -3.456934 	 0.262764 
H 	 -3.271025 	 -2.344371 	 -4.036680 
H 	 -4.660865 	 -1.595685 	 -3.830407 
H 	 -7.333990 	 4.976643 	 5.819701 
H 	 7.194629 	 5.031567 	 4.329080 
H 	 4.327287 	 -2.703082 	 2.704877 
H 	 5.024783 	 -1.770729 	 1.837373 
H 	 1.510521 	 2.299672 	 2.133782 
H 	 0.725046 	 2.755507 	 3.567517 
H 	 4.551206 	 3.696161 	 0.037230 
H 	 3.435519 	 4.605269 	 -0.609452 
H 	 1.098316 	 7.372419 	 3.229286 
H 	 0.480373 	 5.981017 	 3.541716 
H 	 -3.828089 	 6.046337 	 -4.229265 
H 	 -3.074357 	 7.288735 	 -4.949098 
H 	 -2.157979 	 4.354012 	 -1.782968 
H 	 -1.679234 	 4.786144 	 -0.342715 
H 	 -2.650393 	 -3.497684 	 -1.788130 
H 	 -1.582312 	 -3.798873 	 -2.932014 
H 	 -3.151302 	 1.392854 	 1.181213 
H 	 -3.365028 	 1.505061 	 -0.270874 
H 	 -1.510378 	 -5.105256 	 0.600032 
H 	 -0.976307 	 -4.777952 	 -0.767228 
H 	 -4.153570 	 5.510601 	 3.475655 
H 	 -3.029739 	 5.451237 	 4.542643 
H 	 0.958880 	 -5.858968 	 5.278884 
H 	 -2.825432 	 -6.072640 	 -6.902930 
H 	 -6.022376 	 1.221649 	 -0.130823 
H 	 -6.783709 	 -0.078201 	 0.200358 
H 	 4.968427 	 1.817575 	 1.741281 
H 	 3.893165 	 1.271316 	 0.865310 
H 	 3.190283 	 -6.781166 	 -2.095429 
H 	 2.325432 	 -6.457906 	 -3.371639 
H 	 -1.098683 	 0.009295 	 6.610338 
H 	 -1.264153 	 0.231561 	 5.113472 
H 	 -1.906348 	 -5.444974 	 -5.732772 
O 	 7.256555 	 -0.191896 	 5.114465 
O 	 4.141919 	 -3.900250 	 -4.977681 
O 	 -6.011714 	 -1.013094 	 -2.871750 
O 	 5.311196 	 -0.052638 	 3.224737 
O 	 -6.680357 	 -1.939828 	 0.039760 
O 	 6.224854 	 -2.541888 	 -1.931657 
O 	 -4.317754 	 -4.098570 	 3.518914 
O 	 -6.711932 	 6.154097 	 -2.000946 
O 	 -4.457373 	 -2.830541 	 -6.647359 
O 	 -5.380968 	 3.626683 	 -0.988194 
O 	 2.859252 	 0.717648 	 4.551489 
O 	 -4.017970 	 6.920643 	 -1.302793 
O 	 1.558220 	 4.123581 	 -1.220898 
O 	 6.284270 	 6.531942 	 0.179444 
O 	 -0.606298 	 -0.001726 	 -6.115519 
O 	 6.214078 	 0.137184 	 -1.808903 
O 	 2.129421 	 -2.875537 	 -2.616829 
O 	 -6.170918 	 -5.741968 	 -5.807797 
O 	 -3.341081 	 -6.538994 	 6.284844 
O 	 -0.099882 	 7.462716 	 -7.342954 
O 	 -2.728302 	 2.053729 	 6.641643 
O 	 1.148323 	 4.767105 	 -7.335998 
O 	 6.516656 	 -3.100046 	 4.761842 
O 	 -6.023056 	 1.059995 	 3.097147 
O 	 1.064101 	 -4.286485 	 1.713407 
O 	 0.113495 	 0.661352 	 -2.369440 
O 	 -2.643742 	 3.165226 	 -2.999399 
O 	 -0.013086 	 2.348908 	 5.941942 
O 	 7.250391 	 3.731233 	 -5.273246 
O 	 6.331567 	 -6.054917 	 7.473599 
O 	 3.170132 	 -0.526018 	 -3.475747 
O 	 6.632597 	 -5.569889 	 -0.745192 
O 	 5.417741 	 -1.267112 	 7.286285 
O 	 -7.336907 	 6.622262 	 -4.731625 
O 	 -7.250167 	 -3.972405 	 2.216034 
O 	 3.677966 	 -3.378696 	 4.329499 
O 	 -6.229952 	 -4.628043 	 5.964584 
O 	 0.272041 	 -3.318125 	 -6.746087 
O 	 0.112994 	 -6.320179 	 -1.404614 
O 	 4.118130 	 5.914308 	 -3.936888 
O 	 -1.025348 	 2.903387 	 -5.244564 
O 	 3.284348 	 -6.773842 	 0.091845 
O 	 -5.370520 	 4.500502 	 1.597798 
O 	 5.740063 	 -0.293018 	 -4.764499 
O 	 -0.314799 	 6.354895 	 -3.226382 
O 	 1.376088 	 -1.847286 	 5.622705 
O 	 -5.906729 	 1.728474 	 -4.396416 
O 	 -4.905629 	 4.476978 	 -4.054748 
O 	 -1.981659 	 -5.263341 	 4.625234 
O 	 -5.210794 	 6.995982 	 4.416654 
O 	 -4.166415 	 -1.450514 	 2.896118 
O 	 1.790140 	 3.822631 	 -4.545493 
O 	 3.992558 	 -5.736488 	 5.973235 
O 	 1.296014 	 4.728347 	 4.692903 
O 	 -0.147290 	 -3.986076 	 -4.247959 
O 	 3.709073 	 1.737256 	 -1.799243 
O 	 -7.056881 	 -2.578745 	 -6.600667 
O 	 2.275445 	 1.612018 	 7.450131 
O 	 2.075486 	 -0.816366 	 -6.049392 
O 	 0.914573 	 -6.650075 	 -4.767839 
O 	 -1.373749 	 3.776175 	 1.216440 
O 	 1.174755 	 6.149825 	 0.365047 
O 	 5.274656 	 2.044096 	 -6.577153 
O 	 -2.489024 	 4.411575 	 -6.812406 
O 	 -4.077852 	 0.622880 	 -6.204397 
O 	 -1.703360 	 -6.538441 	 1.687876 
O 	 -1.541220 	 0.719982 	 2.002543 
O 	 -6.918558 	 -7.080837 	 1.770153 
O 	 -6.891194 	 1.112572 	 7.379888 
O 	 -2.488184 	 -3.027534 	 6.486927 
O 	 -3.446086 	 2.169111 	 4.075793 
O 	 6.054255 	 3.834761 	 -2.871404 
O 	 -4.640154 	 -5.963447 	 -3.326514 
O 	 1.972064 	 -1.189865 	 -0.363999 
O 	 -4.401676 	 -4.212429 	 0.401836 
O 	 -3.890986 	 -1.509575 	 -0.512066 
O 	 2.212507 	 -6.179076 	 3.446515 
O 	 3.266111 	 -3.441810 	 7.469647 
O 	 6.956603 	 3.986777 	 2.880512 
O 	 -0.889320 	 -1.909611 	 1.158350 
O 	 -2.262901 	 6.022370 	 5.868169 
O 	 5.809483 	 -5.864086 	 -4.165032 
O 	 -4.191719 	 7.262312 	 1.377800 
O 	 -3.145552 	 0.537563 	 -2.264379 
O 	 -6.124351 	 -4.473543 	 -1.754536 
O 	 4.987767 	 7.333465 	 3.066383 
O 	 1.567486 	 1.638050 	 -0.167511 
O 	 3.508894 	 6.355065 	 5.439683 
O 	 5.097636 	 2.648583 	 5.452491 
O 	 5.183073 	 6.195514 	 -6.980438 
O 	 -0.498928 	 -3.007284 	 3.729900 
O 	 3.871523 	 4.380800 	 3.241014 
O 	 4.079824 	 -3.992821 	 -0.527644 
O 	 -3.784644 	 -1.508919 	 -4.182343 
O 	 7.445287 	 5.666728 	 5.121887 
O 	 4.680643 	 -2.667053 	 1.763969 
O 	 1.092874 	 2.008567 	 2.996564 
O 	 4.346217 	 4.602409 	 -0.255040 
O 	 0.413763 	 6.723360 	 2.914023 
O 	 -2.991763 	 6.361300 	 -4.646406 
O 	 -1.928323 	 5.154255 	 -1.208957 
O 	 -2.576743 	 -3.690744 	 -2.738725 
O 	 -3.805705 	 1.643920 	 0.551551 
O 	 -1.511785 	 -4.369925 	 -0.060842 
O 	 -3.474088 	 4.894268 	 3.817174 
O 	 0.383878 	 -5.399699 	 5.925783 
O 	 -6.909463 	 0.915226 	 0.149541 
O 	 4.341010 	 2.095508 	 1.054246 
O 	 3.262134 	 -6.531846 	 -3.075280 
O 	 -1.100962 	 -0.494058 	 5.757469 
O 	 -2.263597 	 -6.263869 	 -6.075626 
K 	 7.434042 	 -3.484713 	 -4.239782 
