333
conformation = 71
H 	 7.094188 	 -1.060026 	 5.086683 
H 	 -7.472350 	 0.244147 	 5.966091 
H 	 3.586021 	 -3.836266 	 -4.065509 
H 	 4.610074 	 -4.665816 	 -4.891070 
H 	 -6.233405 	 -1.042746 	 -2.394700 
H 	 -6.098847 	 0.073812 	 -3.476437 
H 	 4.135176 	 -0.078961 	 3.391273 
H 	 5.622516 	 -0.184145 	 3.798843 
H 	 -6.982676 	 -2.404373 	 0.867285 
H 	 7.317849 	 -1.961420 	 -0.548231 
H 	 5.429413 	 -2.816763 	 -1.389731 
H 	 5.901105 	 -1.483360 	 -1.834862 
H 	 -3.541780 	 -4.534051 	 3.849172 
H 	 -4.518286 	 -3.301646 	 3.522740 
H 	 -7.331501 	 6.602631 	 -1.392660 
H 	 -5.809822 	 6.429915 	 -1.864971 
H 	 -3.862257 	 -3.017705 	 -7.282639 
H 	 -4.024280 	 -2.701736 	 -5.810823 
H 	 -6.087540 	 4.536428 	 -1.514774 
H 	 -4.752356 	 3.759471 	 -1.691473 
H 	 2.305144 	 -0.432475 	 4.762583 
H 	 2.036675 	 0.831047 	 3.912464 
H 	 -3.299876 	 6.343031 	 -1.580915 
H 	 -4.130448 	 -7.305191 	 -2.141975 
H 	 1.292906 	 4.221641 	 -2.226301 
H 	 1.172189 	 4.890283 	 -0.748603 
H 	 5.852187 	 5.984679 	 -0.092380 
H 	 6.702037 	 7.052703 	 0.868926 
H 	 0.043748 	 -0.045389 	 -6.141240 
H 	 -0.913388 	 1.180352 	 -6.270636 
H 	 5.205089 	 0.680068 	 -1.430982 
H 	 6.767517 	 0.540484 	 -1.092453 
H 	 2.660234 	 -2.182343 	 -2.910918 
H 	 1.277196 	 -3.121520 	 -3.033640 
H 	 -5.306652 	 -5.251240 	 -5.523843 
H 	 -6.311052 	 -6.473590 	 -5.599002 
H 	 -2.859043 	 -6.044334 	 5.824445 
H 	 -4.297667 	 -6.585779 	 6.074914 
H 	 -0.668387 	 -6.932447 	 -6.911500 
H 	 0.537355 	 -6.695059 	 7.001704 
H 	 -3.299717 	 1.966555 	 5.956273 
H 	 -3.403428 	 2.632245 	 7.408711 
H 	 0.789482 	 5.746776 	 -7.044898 
H 	 0.358157 	 4.374132 	 7.385367 
H 	 7.074779 	 -3.738396 	 5.400736 
H 	 5.629930 	 -3.020163 	 4.892537 
H 	 -6.515593 	 1.483923 	 2.620681 
H 	 -6.720640 	 0.628844 	 3.921142 
H 	 0.431160 	 -4.786635 	 0.968509 
H 	 0.748253 	 -3.911124 	 2.194988 
H 	 -0.047204 	 -0.182050 	 -1.782287 
H 	 -1.073531 	 0.765281 	 -2.342892 
H 	 -2.025947 	 2.947856 	 -3.730996 
H 	 -2.880771 	 2.419746 	 -2.672727 
H 	 0.452507 	 1.766767 	 6.391311 
H 	 -0.972567 	 2.137461 	 6.545662 
H 	 6.311469 	 3.126560 	 -5.778541 
H 	 6.769487 	 3.614834 	 -4.335629 
H 	 6.995475 	 -6.033450 	 6.512518 
H 	 6.503866 	 -5.466582 	 -6.987120 
H 	 3.259497 	 0.315327 	 -2.928146 
H 	 4.213918 	 -0.441937 	 -3.915283 
H 	 6.207779 	 -6.339482 	 -0.392745 
H 	 5.839585 	 -4.850938 	 -0.571320 
H 	 5.141730 	 -1.224869 	 -6.665320 
H 	 4.314846 	 -2.092911 	 7.317551 
H 	 7.052734 	 5.763634 	 -5.284945 
H 	 -7.190178 	 6.370084 	 -3.952610 
H 	 -6.185308 	 -3.994319 	 2.606792 
H 	 7.359298 	 -3.379518 	 2.857835 
H 	 3.587845 	 -4.196987 	 4.873941 
H 	 3.018924 	 -2.699627 	 4.877431 
H 	 -5.700549 	 -4.542828 	 6.685587 
H 	 -5.646978 	 -4.709073 	 5.189349 
H 	 -0.479497 	 -2.688997 	 -7.176501 
H 	 0.437975 	 -3.853292 	 7.261513 
H 	 0.489642 	 -6.967860 	 -1.011557 
H 	 -0.322476 	 -6.519943 	 -2.234708 
H 	 3.409829 	 6.210540 	 -3.320597 
H 	 3.295170 	 4.903324 	 -4.014198 
H 	 -1.283837 	 3.283095 	 -5.785826 
H 	 0.044846 	 3.296784 	 -4.853500 
H 	 3.438768 	 -6.031774 	 -0.089673 
H 	 4.297886 	 7.521653 	 0.086275 
H 	 -5.588803 	 3.767743 	 0.762420 
H 	 -4.700311 	 3.819424 	 2.142634 
H 	 6.127735 	 0.078254 	 -3.672339 
H 	 6.041521 	 0.768485 	 -5.028019 
H 	 -0.976030 	 6.036963 	 -2.643016 
H 	 -1.484630 	 6.411046 	 -4.034064 
H 	 1.485681 	 -2.446624 	 6.253122 
H 	 0.603343 	 -1.276966 	 5.813406 
H 	 -6.465612 	 2.105288 	 -4.949650 
H 	 -5.096433 	 1.499083 	 -4.454286 
H 	 -4.360643 	 3.858417 	 -3.706333 
H 	 -5.617053 	 4.356166 	 -4.526008 
H 	 -0.475521 	 -5.331663 	 5.235131 
H 	 -1.961301 	 -5.923290 	 3.990552 
H 	 -6.027032 	 7.126277 	 4.916717 
H 	 -5.216079 	 -7.189128 	 3.754791 
H 	 -3.429146 	 -0.870059 	 2.931553 
H 	 -4.920576 	 -0.487895 	 2.883125 
H 	 2.457860 	 3.196139 	 -4.487406 
H 	 1.761374 	 3.984172 	 -5.660156 
H 	 3.614408 	 -6.795725 	 5.808791 
H 	 4.638593 	 -5.606124 	 6.037285 
H 	 1.998781 	 5.166844 	 5.348593 
H 	 1.143406 	 3.963094 	 5.157873 
H 	 0.438724 	 -4.894430 	 -4.208583 
H 	 -0.122087 	 -3.792915 	 -4.985831 
H 	 3.981247 	 2.553148 	 -2.246874 
H 	 3.198438 	 1.774448 	 -1.165028 
H 	 7.044156 	 -2.051759 	 -7.301253 
H 	 -6.357877 	 -2.186354 	 -6.846845 
H 	 2.057967 	 0.836332 	 -6.894078 
H 	 2.457268 	 1.327123 	 6.655628 
H 	 2.496905 	 -1.462937 	 -6.506556 
H 	 2.408881 	 -0.607017 	 -5.215273 
H 	 0.956815 	 -6.840018 	 -5.680479 
H 	 0.564138 	 -7.198206 	 -4.234162 
H 	 -1.777403 	 4.591733 	 2.036097 
H 	 -1.978275 	 3.243780 	 1.163598 
H 	 2.021133 	 6.641748 	 0.308824 
H 	 0.798061 	 6.151064 	 1.230699 
H 	 5.161257 	 2.378619 	 -7.345986 
H 	 4.147990 	 2.047011 	 -6.206329 
H 	 -2.703574 	 5.307088 	 -6.005639 
H 	 -2.486510 	 5.231068 	 7.358066 
H 	 -3.606740 	 0.979914 	 -6.575391 
H 	 -3.578059 	 -0.319732 	 -5.716104 
H 	 -2.571862 	 -6.970213 	 1.712895 
H 	 -1.124172 	 -7.235178 	 2.284690 
H 	 -0.998351 	 1.137014 	 2.545737 
H 	 -1.086310 	 -0.163953 	 1.661401 
H 	 -6.230631 	 -6.921693 	 1.439930 
H 	 -7.217220 	 -5.773190 	 1.623233 
H 	 -7.361057 	 1.582782 	 -6.727680 
H 	 -5.982752 	 0.875258 	 -6.992094 
H 	 -2.020151 	 -3.730586 	 5.808766 
H 	 -2.119187 	 -2.140618 	 5.987800 
H 	 -4.282648 	 1.873741 	 3.722159 
H 	 -3.455305 	 3.143791 	 4.091915 
H 	 5.340821 	 4.679913 	 -3.214686 
H 	 6.322886 	 4.132283 	 -2.113751 
H 	 -3.653526 	 -5.408300 	 -3.167012 
H 	 -5.101407 	 -5.508824 	 -2.666665 
H 	 1.678176 	 -1.702497 	 -1.015515 
H 	 1.073055 	 -1.449299 	 0.317540 
H 	 -3.577208 	 -4.221910 	 0.068088 
H 	 -4.234441 	 -4.163539 	 1.389051 
H 	 -3.594047 	 -1.137286 	 0.314056 
H 	 -4.903341 	 -1.572911 	 -0.179235 
H 	 3.135123 	 -6.499130 	 3.121055 
H 	 2.020050 	 -5.562392 	 2.553786 
H 	 3.531340 	 -4.134441 	 7.176166 
H 	 3.297031 	 -3.454996 	 -6.390062 
H 	 -7.275924 	 4.042110 	 2.684186 
H 	 6.346859 	 3.259964 	 3.404416 
H 	 -0.879427 	 -2.439216 	 1.779738 
H 	 -1.382399 	 -2.299755 	 0.384796 
H 	 -2.609140 	 6.962894 	 6.044775 
H 	 -1.184807 	 6.377528 	 6.013876 
H 	 6.434077 	 -6.841263 	 -4.588173 
H 	 5.019066 	 -6.398430 	 -4.032971 
H 	 -4.253604 	 7.372951 	 0.210651 
H 	 -4.343656 	 6.268672 	 1.242422 
H 	 -3.135002 	 0.237107 	 -3.189536 
H 	 -3.728431 	 -0.301609 	 -1.924088 
H 	 -6.573101 	 -4.936111 	 -1.179137 
H 	 -5.530272 	 -3.888145 	 -1.070849 
H 	 5.854083 	 -7.268917 	 2.636577 
H 	 4.751077 	 6.624401 	 2.853608 
H 	 1.484414 	 2.769078 	 -0.455355 
H 	 1.192000 	 1.106812 	 -0.324207 
H 	 4.191543 	 6.178423 	 6.495010 
H 	 4.372122 	 6.275812 	 5.002276 
H 	 4.582812 	 3.852310 	 5.046403 
H 	 4.709317 	 2.355924 	 4.670835 
H 	 5.262231 	 7.096970 	 -6.958813 
H 	 4.543086 	 6.062234 	 -6.084776 
H 	 0.005828 	 -2.887398 	 4.448873 
H 	 -1.103299 	 -3.869905 	 3.852916 
H 	 2.743578 	 4.852815 	 3.648308 
H 	 3.684382 	 3.948390 	 2.896010 
H 	 3.367392 	 -3.764104 	 -0.903570 
H 	 4.247497 	 -3.253507 	 0.343655 
H 	 -3.096793 	 -2.323764 	 -3.816454 
H 	 -4.409109 	 -1.584146 	 -4.128441 
H 	 7.123450 	 5.143738 	 5.984624 
H 	 7.246015 	 5.026278 	 4.505787 
H 	 4.183198 	 -3.029186 	 2.480984 
H 	 4.865723 	 -1.748543 	 2.298375 
H 	 0.756302 	 1.891429 	 1.846343 
H 	 0.878541 	 3.018373 	 2.889463 
H 	 4.519955 	 3.821027 	 0.214357 
H 	 3.533017 	 4.744336 	 -0.637004 
H 	 1.100148 	 7.221468 	 3.138823 
H 	 0.455564 	 5.845569 	 3.586790 
H 	 -3.866664 	 5.941268 	 -4.182832 
H 	 -3.422822 	 7.254435 	 -4.945181 
H 	 -2.065560 	 4.335382 	 -1.613548 
H 	 -1.556517 	 4.974661 	 -0.204697 
H 	 -2.666746 	 -3.040548 	 -1.767426 
H 	 -1.774089 	 -3.746347 	 -2.848112 
H 	 -3.016838 	 1.180848 	 1.279001 
H 	 -3.573903 	 1.610294 	 -0.066034 
H 	 -1.670694 	 -5.150439 	 0.788144 
H 	 -1.104740 	 -5.038682 	 -0.584114 
H 	 -4.101807 	 5.376167 	 3.922107 
H 	 -2.693772 	 5.145148 	 4.350886 
H 	 1.004230 	 -5.699537 	 4.852059 
H 	 -2.949646 	 -6.248383 	 -6.763840 
H 	 -5.970130 	 1.336536 	 0.068405 
H 	 -6.681969 	 -0.050516 	 0.276186 
H 	 4.672320 	 1.086382 	 1.570480 
H 	 3.343529 	 1.761112 	 1.002823 
H 	 2.495223 	 -6.244041 	 -2.459092 
H 	 2.582225 	 -6.427911 	 -3.962895 
H 	 -0.987461 	 -0.109529 	 6.663614 
H 	 -0.841303 	 0.528664 	 5.299286 
H 	 -2.685432 	 -5.163209 	 -5.670410 
O 	 7.186483 	 -0.078678 	 5.080144 
O 	 4.199374 	 -3.748814 	 -4.804132 
O 	 -5.907057 	 -0.871192 	 -3.312444 
O 	 5.037985 	 -0.102722 	 2.981865 
O 	 -6.849511 	 -1.765641 	 0.113382 
O 	 6.149982 	 -2.433634 	 -1.952031 
O 	 -4.528224 	 -4.292882 	 3.607846 
O 	 -6.746153 	 6.063742 	 -1.968682 
O 	 -4.579221 	 -2.828735 	 -6.662861 
O 	 -5.525665 	 3.829626 	 -1.141375 
O 	 2.701250 	 0.474589 	 4.575040 
O 	 -4.077422 	 6.929861 	 -1.416574 
O 	 1.675870 	 4.204481 	 -1.321829 
O 	 6.268832 	 6.883243 	 0.001030 
O 	 -0.866252 	 0.235576 	 -6.458077 
O 	 6.076842 	 0.344747 	 -1.791330 
O 	 2.118507 	 -2.932938 	 -2.514781 
O 	 -6.111358 	 -5.581739 	 -5.928007 
O 	 -3.412210 	 -6.541823 	 6.526005 
O 	 0.163135 	 7.528114 	 -7.237906 
O 	 -2.997877 	 1.923736 	 6.891015 
O 	 1.075953 	 4.815899 	 -7.042485 
O 	 6.595143 	 -3.039384 	 4.824473 
O 	 -6.015707 	 0.975736 	 3.265665 
O 	 1.195259 	 -4.299994 	 1.390117 
O 	 -0.099668 	 0.607047 	 -2.399359 
O 	 -2.659481 	 3.266996 	 -3.056206 
O 	 -0.214596 	 2.305701 	 5.939146 
O 	 7.088508 	 3.554828 	 -5.315441 
O 	 6.215390 	 -5.926288 	 7.120307 
O 	 3.307697 	 -0.490424 	 -3.522438 
O 	 6.540006 	 -5.483938 	 -0.693506 
O 	 5.014577 	 -1.397087 	 7.270187 
O 	 7.371263 	 6.605846 	 -4.877507 
O 	 -7.050559 	 -3.769742 	 2.144460 
O 	 3.655693 	 -3.281652 	 4.368692 
O 	 -6.263603 	 -4.539525 	 5.920010 
O 	 0.409256 	 -3.075099 	 -7.026815 
O 	 -0.073143 	 -6.225943 	 -1.372266 
O 	 3.891111 	 5.663035 	 -3.962445 
O 	 -0.771322 	 2.790550 	 -5.076431 
O 	 3.341156 	 -6.998304 	 0.114252 
O 	 -5.456036 	 4.202024 	 1.633706 
O 	 5.778338 	 -0.056543 	 -4.587729 
O 	 -0.678981 	 6.519932 	 -3.413840 
O 	 1.346277 	 -1.834397 	 5.441614 
O 	 -5.959039 	 1.815247 	 -4.175189 
O 	 -4.864727 	 4.613533 	 -4.001313 
O 	 -2.137065 	 -5.218710 	 4.653759 
O 	 -5.166876 	 7.065115 	 4.504865 
O 	 -4.310398 	 -1.242395 	 2.746381 
O 	 1.837966 	 3.872246 	 -4.656313 
O 	 3.710277 	 -5.768761 	 5.930098 
O 	 1.382095 	 4.771764 	 4.723003 
O 	 -0.061231 	 -4.066978 	 -4.103375 
O 	 3.811432 	 1.637580 	 -1.890261 
O 	 -7.268805 	 -2.311672 	 -6.494595 
O 	 2.012218 	 1.651162 	 7.465550 
O 	 1.984472 	 -0.724802 	 -6.080323 
O 	 1.039626 	 -6.519571 	 -4.718891 
O 	 -1.356657 	 3.974650 	 1.384108 
O 	 1.083690 	 6.277855 	 0.314806 
O 	 5.098392 	 1.971696 	 -6.447622 
O 	 -2.555745 	 4.629647 	 -6.743613 
O 	 -4.072886 	 0.471583 	 -5.861496 
O 	 -1.673282 	 -6.619206 	 1.753536 
O 	 -1.590828 	 0.656157 	 1.935582 
O 	 -7.068452 	 -6.681558 	 1.917355 
O 	 -6.841580 	 1.096967 	 7.520155 
O 	 -2.268455 	 -3.014397 	 6.395318 
O 	 -3.395109 	 2.134466 	 4.002926 
O 	 5.848901 	 3.875220 	 -2.931001 
O 	 -4.443279 	 -5.993172 	 -3.236098 
O 	 1.684040 	 -1.020006 	 -0.339030 
O 	 -4.472931 	 -4.101430 	 0.465583 
O 	 -3.971551 	 -1.553787 	 -0.499658 
O 	 2.168395 	 -6.255727 	 3.221651 
O 	 3.187130 	 -3.298398 	 7.523028 
O 	 6.679197 	 4.040142 	 2.970655 
O 	 -1.074787 	 -1.785580 	 1.123001 
O 	 -2.109560 	 6.120993 	 5.851298 
O 	 5.829012 	 -6.081043 	 -4.528943 
O 	 -4.451940 	 7.235748 	 1.215278 
O 	 -3.177658 	 0.457143 	 -2.235051 
O 	 -6.067632 	 -4.367905 	 -1.794250 
O 	 5.096296 	 7.485134 	 3.156806 
O 	 1.653497 	 1.899725 	 0.067256 
O 	 3.651871 	 6.409840 	 5.666366 
O 	 4.834004 	 2.990341 	 5.376544 
O 	 4.964971 	 6.150041 	 -7.002185 
O 	 -0.498976 	 -3.111086 	 3.631589 
O 	 3.679546 	 4.799087 	 3.337800 
O 	 4.191701 	 -3.911518 	 -0.399690 
O 	 -3.506586 	 -1.648398 	 -4.373009 
O 	 -7.498678 	 5.657818 	 5.229395 
O 	 4.488755 	 -2.509889 	 1.742755 
O 	 0.808703 	 2.077606 	 2.789479 
O 	 4.387810 	 4.733984 	 -0.148715 
O 	 0.418189 	 6.552790 	 2.898763 
O 	 -3.134490 	 6.330260 	 -4.675879 
O 	 -1.780684 	 5.167427 	 -1.167714 
O 	 -2.691043 	 -3.605402 	 -2.576676 
O 	 -3.836835 	 1.609042 	 0.879682 
O 	 -1.645853 	 -4.519458 	 0.055616 
O 	 -3.338479 	 4.798527 	 3.698963 
O 	 0.469857 	 -5.279880 	 5.586953 
O 	 -6.867299 	 0.926209 	 0.117271 
O 	 4.308532 	 1.960362 	 1.257704 
O 	 3.162241 	 -6.489744 	 -3.094701 
O 	 -1.031911 	 -0.390544 	 5.658891 
O 	 -2.534725 	 -6.133855 	 -5.852221 
K 	 7.319464 	 -3.508871 	 -4.227980 
