333
conformation = 66
H 	 7.029189 	 -1.003699 	 5.070384 
H 	 7.325183 	 0.339417 	 6.027885 
H 	 3.541806 	 -3.885465 	 -4.040552 
H 	 4.568963 	 -4.565624 	 -4.845506 
H 	 -6.231395 	 -1.040427 	 -2.315758 
H 	 -6.114771 	 0.111733 	 -3.408395 
H 	 4.123535 	 0.014714 	 3.507777 
H 	 5.603234 	 -0.187710 	 3.828526 
H 	 -7.026220 	 -2.313347 	 0.923633 
H 	 7.330338 	 -1.966648 	 -0.515545 
H 	 5.343099 	 -2.821853 	 -1.371043 
H 	 5.906440 	 -1.431181 	 -1.806368 
H 	 -3.614461 	 -4.494247 	 3.904019 
H 	 -4.559269 	 -3.268241 	 3.538837 
H 	 -7.320394 	 6.628791 	 -1.290986 
H 	 -5.874687 	 6.426115 	 -1.738464 
H 	 -3.846123 	 -2.941043 	 -7.218582 
H 	 -4.094937 	 -2.613081 	 -5.801889 
H 	 -6.030524 	 4.628391 	 -1.528099 
H 	 -4.742299 	 3.789402 	 -1.606035 
H 	 2.259594 	 -0.333898 	 4.813883 
H 	 2.051054 	 0.941279 	 3.957654 
H 	 -3.326969 	 6.429890 	 -1.566224 
H 	 -4.130474 	 -7.248219 	 -2.054758 
H 	 1.261148 	 4.269458 	 -2.191571 
H 	 1.126706 	 4.920127 	 -0.712474 
H 	 5.788753 	 6.049289 	 0.095362 
H 	 6.695035 	 7.093534 	 0.887283 
H 	 0.005999 	 -0.007160 	 -6.133142 
H 	 -0.955443 	 1.241223 	 -6.212430 
H 	 5.194969 	 0.716824 	 -1.339443 
H 	 6.737564 	 0.624887 	 -1.096868 
H 	 2.604371 	 -2.165109 	 -2.866390 
H 	 1.255458 	 -3.051704 	 -2.934241 
H 	 -5.343510 	 -5.207619 	 -5.429660 
H 	 -6.326787 	 -6.478807 	 -5.599757 
H 	 -2.871844 	 -5.946374 	 5.862050 
H 	 -4.358198 	 -6.524885 	 6.114887 
H 	 -0.707778 	 -6.889191 	 -6.880097 
H 	 0.474666 	 -6.654528 	 7.027087 
H 	 -3.328680 	 2.014348 	 5.996398 
H 	 -3.446206 	 2.653641 	 7.474483 
H 	 0.723530 	 5.816328 	 -7.057430 
H 	 0.283914 	 4.337952 	 7.413204 
H 	 6.986722 	 -3.732091 	 5.421606 
H 	 5.564150 	 -2.995530 	 4.933979 
H 	 -6.595235 	 1.489319 	 2.610498 
H 	 -6.721369 	 0.710403 	 3.957006 
H 	 0.447278 	 -4.715097 	 0.948783 
H 	 0.663318 	 -3.849489 	 2.258943 
H 	 -0.144620 	 -0.104291 	 -1.792010 
H 	 -1.096501 	 0.817135 	 -2.394820 
H 	 -2.001904 	 3.095460 	 -3.696484 
H 	 -2.962708 	 2.450239 	 -2.605593 
H 	 0.441662 	 1.825409 	 6.488890 
H 	 -1.018287 	 2.170885 	 6.553747 
H 	 6.283902 	 3.259090 	 -5.740496 
H 	 6.714827 	 3.652725 	 -4.311271 
H 	 6.958987 	 -6.011914 	 6.640627 
H 	 6.466219 	 -5.376795 	 -6.927963 
H 	 3.166335 	 0.370662 	 -2.847956 
H 	 4.140191 	 -0.430701 	 -3.854944 
H 	 6.185684 	 -6.327950 	 -0.317642 
H 	 5.821041 	 -4.797937 	 -0.481065 
H 	 5.119708 	 -1.254715 	 -6.627797 
H 	 4.285251 	 -2.046039 	 7.328770 
H 	 6.981951 	 5.820740 	 -5.200855 
H 	 -7.278121 	 6.354921 	 -3.968154 
H 	 -6.270712 	 -3.979031 	 2.586372 
H 	 7.273893 	 -3.298113 	 2.914117 
H 	 3.616130 	 -4.042868 	 4.914269 
H 	 2.972975 	 -2.693488 	 4.862535 
H 	 -5.711463 	 -4.601713 	 6.735709 
H 	 -5.702334 	 -4.599045 	 5.189109 
H 	 -0.540171 	 -2.667860 	 -7.085260 
H 	 0.435761 	 -3.837909 	 7.355607 
H 	 0.432734 	 -6.848486 	 -0.944345 
H 	 -0.346829 	 -6.456523 	 -2.244021 
H 	 3.394245 	 6.279359 	 -3.248374 
H 	 3.236814 	 4.951870 	 -3.969044 
H 	 -1.282804 	 3.376324 	 -5.767403 
H 	 -0.041847 	 3.312108 	 -4.772552 
H 	 3.399676 	 -5.972658 	 -0.030386 
H 	 4.167319 	 7.591756 	 0.190702 
H 	 -5.628856 	 3.824032 	 0.842933 
H 	 -4.812598 	 3.825151 	 2.213137 
H 	 6.107927 	 0.125567 	 -3.652822 
H 	 5.972894 	 0.825546 	 -4.983333 
H 	 -0.995762 	 6.060882 	 -2.538025 
H 	 -1.468523 	 6.457546 	 -3.984170 
H 	 1.440890 	 -2.371019 	 6.261167 
H 	 0.558890 	 -1.288600 	 5.891489 
H 	 -6.484989 	 2.157097 	 -4.935512 
H 	 -5.156707 	 1.543314 	 -4.436177 
H 	 -4.365290 	 3.892773 	 -3.650884 
H 	 -5.704909 	 4.409470 	 -4.486149 
H 	 -0.493064 	 -5.309250 	 5.292253 
H 	 -2.029805 	 -5.807111 	 3.955502 
H 	 -6.100706 	 7.156431 	 4.934523 
H 	 -5.278365 	 -7.129777 	 3.828488 
H 	 -3.478266 	 -0.780738 	 2.926771 
H 	 -4.988007 	 -0.465860 	 2.851720 
H 	 2.477504 	 3.231257 	 -4.466455 
H 	 1.816667 	 4.031758 	 -5.591943 
H 	 3.575132 	 -6.679799 	 5.855004 
H 	 4.664256 	 -5.574148 	 6.201306 
H 	 1.997568 	 5.215873 	 5.356742 
H 	 1.079186 	 4.001561 	 5.240112 
H 	 0.446602 	 -4.849810 	 -4.204051 
H 	 -0.135094 	 -3.689055 	 -5.024902 
H 	 3.903689 	 2.591105 	 -2.202217 
H 	 3.114693 	 1.763755 	 -1.126124 
H 	 7.049193 	 -1.967976 	 -7.184498 
H 	 -6.392945 	 -2.218522 	 -6.816733 
H 	 2.080697 	 0.870280 	 -6.840549 
H 	 2.416322 	 1.436876 	 6.682175 
H 	 2.348695 	 -1.489460 	 -6.387959 
H 	 2.352243 	 -0.571462 	 -5.159857 
H 	 0.872490 	 -6.807117 	 -5.583156 
H 	 0.504798 	 -7.142024 	 -4.114186 
H 	 -1.852208 	 4.532503 	 2.071997 
H 	 -2.057293 	 3.311481 	 1.256721 
H 	 1.947761 	 6.722434 	 0.330807 
H 	 0.754385 	 6.162164 	 1.300757 
H 	 5.079866 	 2.437640 	 -7.302492 
H 	 4.145834 	 2.144482 	 -6.208713 
H 	 -2.823779 	 5.261148 	 -5.982991 
H 	 -2.605390 	 5.238130 	 7.402183 
H 	 -3.642322 	 0.967259 	 -6.579647 
H 	 -3.593644 	 -0.276620 	 -5.537439 
H 	 -2.666398 	 -6.875415 	 1.762028 
H 	 -1.164207 	 -7.215712 	 2.254213 
H 	 -1.016032 	 1.178814 	 2.566460 
H 	 -1.171095 	 -0.106901 	 1.739136 
H 	 -6.273143 	 -6.852780 	 1.496831 
H 	 -7.218294 	 -5.725705 	 1.654840 
H 	 -7.361720 	 1.650320 	 -6.688574 
H 	 -6.019416 	 0.882917 	 -6.975557 
H 	 -2.048501 	 -3.690163 	 5.841927 
H 	 -2.178518 	 -2.139523 	 5.993946 
H 	 -4.369834 	 1.956834 	 3.752284 
H 	 -3.549303 	 3.153145 	 4.124570 
H 	 5.268550 	 4.708196 	 -3.203299 
H 	 6.372210 	 4.145991 	 -2.147070 
H 	 -3.706179 	 -5.434466 	 -3.125180 
H 	 -5.140857 	 -5.475199 	 -2.599836 
H 	 1.633201 	 -1.716528 	 -0.950322 
H 	 1.102200 	 -1.352736 	 0.381602 
H 	 -3.618485 	 -4.167830 	 0.157693 
H 	 -4.342192 	 -4.081694 	 1.461357 
H 	 -3.577851 	 -1.199801 	 0.373905 
H 	 -4.967632 	 -1.488068 	 -0.149673 
H 	 3.105745 	 -6.439008 	 3.154819 
H 	 1.933070 	 -5.537762 	 2.584700 
H 	 3.434360 	 -4.125658 	 7.153881 
H 	 3.257866 	 -3.478880 	 -6.318830 
H 	 -7.331669 	 4.081365 	 2.718333 
H 	 6.378032 	 3.309374 	 3.498025 
H 	 -0.921205 	 -2.407318 	 1.907256 
H 	 -1.421852 	 -2.244984 	 0.373803 
H 	 -2.715404 	 7.012887 	 6.107401 
H 	 -1.250877 	 6.401945 	 6.071031 
H 	 6.377405 	 -6.811273 	 -4.495386 
H 	 5.016527 	 -6.331811 	 -3.959867 
H 	 -4.280740 	 7.429008 	 0.322241 
H 	 -4.388548 	 6.292854 	 1.301669 
H 	 -3.137924 	 0.260928 	 -3.103749 
H 	 -3.823412 	 -0.209191 	 -1.857791 
H 	 -6.687469 	 -4.838010 	 -1.102504 
H 	 -5.554111 	 -3.907587 	 -1.114452 
H 	 5.851147 	 -7.179012 	 2.661563 
H 	 4.728869 	 6.631038 	 2.938978 
H 	 1.400652 	 2.742520 	 -0.401380 
H 	 1.091449 	 1.208812 	 -0.305310 
H 	 4.019362 	 6.176067 	 6.554255 
H 	 4.302785 	 6.434689 	 5.015415 
H 	 4.537410 	 3.875627 	 5.008183 
H 	 4.692416 	 2.347093 	 4.729611 
H 	 5.242875 	 7.125254 	 -6.948975 
H 	 4.435994 	 6.088501 	 -6.111282 
H 	 -0.028897 	 -2.794214 	 4.451859 
H 	 -1.064314 	 -3.848110 	 3.946038 
H 	 2.695817 	 4.855139 	 3.640772 
H 	 3.628337 	 3.944432 	 2.941727 
H 	 3.343004 	 -3.672709 	 -0.893340 
H 	 4.206670 	 -3.167453 	 0.410770 
H 	 -3.217649 	 -2.277142 	 -3.686471 
H 	 -4.505771 	 -1.457195 	 -4.051113 
H 	 7.076407 	 5.121408 	 6.017371 
H 	 7.205860 	 5.083240 	 4.451261 
H 	 4.122716 	 -3.059779 	 2.516628 
H 	 4.789391 	 -1.697864 	 2.297631 
H 	 0.724248 	 1.952861 	 1.864876 
H 	 0.836877 	 3.080999 	 2.985365 
H 	 4.438821 	 3.879884 	 0.277885 
H 	 3.491234 	 4.793827 	 -0.582228 
H 	 1.062541 	 7.304662 	 3.210216 
H 	 0.489485 	 5.910255 	 3.633585 
H 	 -3.981167 	 6.010022 	 -4.145015 
H 	 -3.466958 	 7.291340 	 -4.938966 
H 	 -2.142240 	 4.380212 	 -1.596992 
H 	 -1.678952 	 4.983717 	 -0.188164 
H 	 -2.735058 	 -3.020969 	 -1.708836 
H 	 -1.794358 	 -3.746375 	 -2.896068 
H 	 -3.110886 	 1.248014 	 1.300040 
H 	 -3.607383 	 1.697727 	 -0.043931 
H 	 -1.749746 	 -5.155074 	 0.820604 
H 	 -1.185951 	 -4.999918 	 -0.562166 
H 	 -4.212444 	 5.428590 	 3.973653 
H 	 -2.766089 	 5.163818 	 4.495428 
H 	 0.948170 	 -5.515404 	 4.869856 
H 	 -2.964434 	 -6.144537 	 -6.738254 
H 	 -6.072922 	 1.414273 	 0.127140 
H 	 -6.677726 	 0.010443 	 0.242498 
H 	 4.542791 	 1.136861 	 1.610151 
H 	 3.380956 	 1.808459 	 0.997522 
H 	 2.393877 	 -6.242235 	 -2.395016 
H 	 2.562724 	 -6.361225 	 -3.851818 
H 	 -1.068758 	 -0.097444 	 6.685382 
H 	 -0.956054 	 0.511207 	 5.251796 
H 	 -2.670535 	 -5.154928 	 -5.628678 
O 	 7.146529 	 -0.031785 	 5.136151 
O 	 4.148300 	 -3.705685 	 -4.781250 
O 	 -5.954005 	 -0.831817 	 -3.233737 
O 	 5.019823 	 -0.052610 	 3.042702 
O 	 -6.892242 	 -1.722447 	 0.155964 
O 	 6.107050 	 -2.393783 	 -1.907346 
O 	 -4.554250 	 -4.241173 	 3.647557 
O 	 -6.787210 	 6.115130 	 -1.926174 
O 	 -4.624563 	 -2.771356 	 -6.608915 
O 	 -5.571160 	 3.872749 	 -1.086419 
O 	 2.656385 	 0.531892 	 4.617379 
O 	 -4.120979 	 6.971834 	 -1.355075 
O 	 1.620499 	 4.240522 	 -1.265290 
O 	 6.219273 	 6.913372 	 0.055365 
O 	 -0.890208 	 0.269451 	 -6.380117 
O 	 6.030553 	 0.377588 	 -1.743966 
O 	 2.063751 	 -2.877468 	 -2.479506 
O 	 -6.168055 	 -5.539516 	 -5.874226 
O 	 -3.449040 	 -6.507774 	 6.561962 
O 	 0.098978 	 7.566958 	 -7.195890 
O 	 -3.029677 	 1.980175 	 6.924116 
O 	 1.034373 	 4.862743 	 -7.016856 
O 	 6.541635 	 -3.002734 	 4.875288 
O 	 -6.062751 	 1.026723 	 3.305516 
O 	 1.134478 	 -4.248087 	 1.456996 
O 	 -0.131661 	 0.656881 	 -2.349100 
O 	 -2.708562 	 3.317088 	 -3.011367 
O 	 -0.247653 	 2.332743 	 5.983188 
O 	 7.054435 	 3.606740 	 -5.260480 
O 	 6.162215 	 -5.884775 	 7.181253 
O 	 3.260573 	 -0.433066 	 -3.459695 
O 	 6.505027 	 -5.451348 	 -0.651766 
O 	 4.987754 	 -1.346230 	 7.314493 
O 	 7.341296 	 6.648672 	 -4.820630 
O 	 -7.110166 	 -3.740000 	 2.191141 
O 	 3.601786 	 -3.238089 	 4.414547 
O 	 -6.310191 	 -4.485411 	 5.969530 
O 	 0.367104 	 -3.042354 	 -6.963142 
O 	 -0.111269 	 -6.184489 	 -1.322615 
O 	 3.857233 	 5.731030 	 -3.915248 
O 	 -0.833054 	 2.839118 	 -5.045984 
O 	 3.292596 	 -6.942534 	 0.162120 
O 	 -5.490678 	 4.272644 	 1.670701 
O 	 5.724631 	 -0.022503 	 -4.560892 
O 	 -0.694970 	 6.555344 	 -3.359038 
O 	 1.307052 	 -1.795687 	 5.501120 
O 	 -6.012476 	 1.867534 	 -4.150413 
O 	 -4.899187 	 4.646895 	 -3.959635 
O 	 -2.175207 	 -5.177612 	 4.699582 
O 	 -5.219918 	 7.100616 	 4.543470 
O 	 -4.351555 	 -1.210511 	 2.808630 
O 	 1.777579 	 3.925274 	 -4.605513 
O 	 3.691860 	 -5.743668 	 5.976806 
O 	 1.334299 	 4.821627 	 4.758554 
O 	 -0.115146 	 -4.020720 	 -4.065445 
O 	 3.768085 	 1.684344 	 -1.835383 
O 	 -7.295623 	 -2.284737 	 -6.447517 
O 	 1.968024 	 1.692696 	 7.507085 
O 	 1.949125 	 -0.679074 	 -6.045465 
O 	 0.985763 	 -6.476899 	 -4.683737 
O 	 -1.393465 	 4.008057 	 1.408177 
O 	 1.043958 	 6.308273 	 0.371291 
O 	 5.078245 	 2.013851 	 -6.397257 
O 	 -2.596997 	 4.672278 	 -6.703189 
O 	 -4.118174 	 0.530172 	 -5.841011 
O 	 -1.711899 	 -6.565841 	 1.786136 
O 	 -1.637396 	 0.710294 	 1.980559 
O 	 -7.108754 	 -6.666219 	 1.946933 
O 	 -6.898558 	 1.144677 	 7.554769 
O 	 -2.341381 	 -2.971783 	 6.451268 
O 	 -3.438334 	 2.193115 	 4.046487 
O 	 5.819862 	 3.922811 	 -2.880080 
O 	 -4.512653 	 -5.941425 	 -3.195585 
O 	 1.664262 	 -0.986269 	 -0.295591 
O 	 -4.515608 	 -4.053814 	 0.496174 
O 	 -4.013935 	 -1.508200 	 -0.453555 
O 	 2.125799 	 -6.208773 	 3.288778 
O 	 3.156171 	 -3.245673 	 -7.322294 
O 	 6.646471 	 4.081358 	 3.010596 
O 	 -1.109702 	 -1.741068 	 1.167553 
O 	 -2.177052 	 6.169499 	 5.889756 
O 	 5.777361 	 -6.012880 	 -4.457229 
O 	 -4.477030 	 7.286604 	 1.259116 
O 	 -3.231032 	 0.501789 	 -2.187675 
O 	 -6.114934 	 -4.330569 	 -1.738729 
O 	 5.042505 	 7.524714 	 3.198791 
O 	 1.606077 	 1.926273 	 0.091530 
O 	 3.610422 	 6.455427 	 5.691683 
O 	 4.803710 	 3.014359 	 5.432519 
O 	 4.935612 	 6.204387 	 -6.960756 
O 	 -0.547334 	 -3.053287 	 3.700037 
O 	 3.631921 	 4.831377 	 3.392742 
O 	 4.141082 	 -3.867546 	 -0.358915 
O 	 -3.569245 	 -1.590411 	 -4.335101 
O 	 -7.530886 	 5.710552 	 5.269383 
O 	 4.457629 	 -2.468176 	 1.786383 
O 	 0.782313 	 2.123312 	 2.855638 
O 	 4.334761 	 4.776963 	 -0.117694 
O 	 0.373041 	 6.610261 	 2.945150 
O 	 -3.178257 	 6.374515 	 -4.627086 
O 	 -1.834906 	 5.212216 	 -1.114616 
O 	 -2.733396 	 -3.564060 	 -2.527317 
O 	 -3.872648 	 1.645530 	 0.908276 
O 	 -1.682681 	 -4.455872 	 0.086350 
O 	 -3.398026 	 4.848563 	 3.753621 
O 	 0.414990 	 -5.239461 	 5.648113 
O 	 -6.919303 	 0.963718 	 0.161237 
O 	 4.268759 	 2.010243 	 1.283892 
O 	 3.120614 	 -6.446644 	 -3.056593 
O 	 -1.078860 	 -0.325799 	 5.710642 
O 	 -2.566736 	 -6.100802 	 -5.815796 
K 	 7.280258 	 -3.460801 	 -4.190304 
