333
conformation = 11
H 	 6.774853 	 -1.008559 	 5.365862 
H 	 7.355341 	 0.288436 	 5.964076 
H 	 3.403135 	 -3.649223 	 -4.308608 
H 	 4.406050 	 -4.782757 	 -4.826626 
H 	 -5.764723 	 -0.776737 	 -1.980857 
H 	 -6.125243 	 -0.044470 	 -3.261588 
H 	 4.390670 	 -0.032030 	 3.773702 
H 	 5.953658 	 0.115263 	 3.877832 
H 	 -6.994105 	 -2.472806 	 0.804485 
H 	 7.393718 	 -2.089775 	 -0.611740 
H 	 5.452893 	 -2.854208 	 -1.299040 
H 	 5.950776 	 -1.517183 	 -1.846920 
H 	 -3.580367 	 -4.555127 	 3.692265 
H 	 -4.096443 	 -3.146623 	 3.430579 
H 	 7.438205 	 6.324075 	 -1.277926 
H 	 -5.902435 	 6.621241 	 -1.764900 
H 	 -3.817089 	 -2.766757 	 -7.298699 
H 	 -4.258598 	 -2.034960 	 -6.004300 
H 	 -5.921080 	 4.294489 	 -1.606921 
H 	 -4.601767 	 3.427541 	 -1.355215 
H 	 2.304518 	 -0.029102 	 4.975738 
H 	 1.986014 	 1.151023 	 4.051229 
H 	 -3.453142 	 6.213948 	 -1.299369 
H 	 -4.033927 	 -7.338834 	 -2.095273 
H 	 1.280464 	 4.370181 	 -2.178092 
H 	 1.115140 	 4.870055 	 -0.658986 
H 	 5.604217 	 5.817238 	 0.158870 
H 	 6.627540 	 6.875988 	 1.038966 
H 	 0.255108 	 -0.057339 	 -5.907011 
H 	 -0.972466 	 0.909593 	 -5.721516 
H 	 5.191401 	 0.615948 	 -1.727085 
H 	 6.542796 	 0.534578 	 -0.967578 
H 	 2.280040 	 -1.961651 	 -3.074186 
H 	 1.293411 	 -3.255003 	 -3.133470 
H 	 -5.538096 	 -5.770551 	 -5.148073 
H 	 -6.844408 	 -6.463133 	 -5.677407 
H 	 -2.897429 	 -5.910591 	 5.583890 
H 	 -4.297903 	 -6.690491 	 5.808031 
H 	 -1.027896 	 -7.075062 	 -6.971710 
H 	 0.070406 	 -6.681399 	 6.957804 
H 	 -3.292782 	 2.267129 	 5.783136 
H 	 -2.958422 	 2.870918 	 7.233766 
H 	 0.398590 	 5.523851 	 -7.285711 
H 	 0.537661 	 3.972587 	 7.338583 
H 	 6.889977 	 -3.481851 	 5.594404 
H 	 5.459718 	 -3.047313 	 4.869094 
H 	 -6.519714 	 0.857248 	 2.238823 
H 	 -6.667753 	 0.624746 	 3.800016 
H 	 0.739696 	 -3.957089 	 0.797379 
H 	 0.235925 	 -3.846287 	 2.247431 
H 	 0.208374 	 -0.214257 	 -2.179299 
H 	 -0.948423 	 0.702431 	 -2.604540 
H 	 -2.127811 	 3.035451 	 -3.771370 
H 	 -2.955769 	 2.304130 	 -2.804937 
H 	 0.306008 	 1.803406 	 6.611959 
H 	 -1.081251 	 2.213259 	 6.145358 
H 	 6.618233 	 3.449924 	 -6.026197 
H 	 6.539726 	 3.877373 	 -4.521121 
H 	 6.761118 	 -5.844653 	 6.645973 
H 	 6.456625 	 -5.321902 	 -6.783590 
H 	 3.190444 	 0.414116 	 -2.990701 
H 	 4.025766 	 -0.662776 	 -3.760216 
H 	 6.393706 	 -6.471294 	 -0.913749 
H 	 5.708235 	 -5.112840 	 -0.806302 
H 	 4.968006 	 -1.042836 	 -6.724469 
H 	 4.676185 	 -1.969773 	 7.081734 
H 	 7.402864 	 5.737653 	 -5.132754 
H 	 -7.081272 	 6.557954 	 -3.815259 
H 	 -6.624342 	 -3.971583 	 2.878198 
H 	 6.857495 	 -3.646268 	 2.768366 
H 	 3.403132 	 -4.318944 	 4.568392 
H 	 2.800218 	 -2.858687 	 4.667125 
H 	 -5.947165 	 -4.490743 	 6.841875 
H 	 -5.608795 	 -4.290055 	 5.369941 
H 	 -0.600247 	 -3.264186 	 -7.340469 
H 	 0.846431 	 -3.857303 	 -7.244178 
H 	 -0.429352 	 -6.576082 	 -0.616354 
H 	 -0.333225 	 -6.921691 	 -2.035361 
H 	 3.886008 	 6.895048 	 -3.847129 
H 	 3.073175 	 5.663809 	 -3.916765 
H 	 -1.538266 	 3.497226 	 -5.975686 
H 	 -0.257102 	 3.306517 	 -4.937229 
H 	 3.350276 	 -5.753644 	 0.226855 
H 	 4.022457 	 -7.171191 	 0.419961 
H 	 -5.591400 	 4.620713 	 0.604637 
H 	 -5.030253 	 3.630305 	 1.720150 
H 	 6.096588 	 0.189952 	 -3.973493 
H 	 5.575433 	 0.492821 	 -5.418876 
H 	 -0.483364 	 5.842906 	 -2.476319 
H 	 -1.356594 	 6.279250 	 -3.565442 
H 	 1.580941 	 -2.016529 	 6.542205 
H 	 0.428224 	 -1.285434 	 5.682485 
H 	 -6.841616 	 2.260701 	 -4.462453 
H 	 -5.572367 	 1.640824 	 -5.232775 
H 	 -4.317269 	 3.962294 	 -3.625776 
H 	 -5.570811 	 3.884464 	 -4.527976 
H 	 -0.563599 	 -5.311723 	 5.384179 
H 	 -1.894657 	 -5.767135 	 3.834480 
H 	 -5.867708 	 6.408579 	 4.879385 
H 	 -6.004115 	 -7.330881 	 3.995516 
H 	 -3.540971 	 -0.761677 	 2.768475 
H 	 -5.001551 	 -0.881916 	 3.236880 
H 	 2.224167 	 3.151367 	 -4.979944 
H 	 1.490147 	 4.514588 	 -5.249274 
H 	 3.437228 	 -6.604269 	 5.877291 
H 	 4.731588 	 -5.881518 	 6.462512 
H 	 1.915689 	 5.270003 	 5.175079 
H 	 0.783937 	 4.255675 	 5.377779 
H 	 0.005892 	 -4.897938 	 -4.285979 
H 	 -0.190811 	 -3.666511 	 -5.144084 
H 	 4.249098 	 2.527845 	 -1.631897 
H 	 2.953932 	 1.730145 	 -1.078816 
H 	 7.210956 	 -1.958320 	 -7.202134 
H 	 -6.178420 	 -2.502639 	 -6.829707 
H 	 2.156330 	 0.684827 	 -7.334167 
H 	 2.447565 	 1.777343 	 6.535004 
H 	 1.655778 	 -1.687110 	 -6.068471 
H 	 2.313275 	 -0.546184 	 -5.147970 
H 	 0.880093 	 -6.754804 	 -5.759342 
H 	 0.373746 	 7.530646 	 -4.446927 
H 	 -2.054954 	 4.284024 	 1.830910 
H 	 -1.527541 	 2.858980 	 1.281100 
H 	 1.787717 	 6.917942 	 0.281513 
H 	 0.851155 	 6.151820 	 1.320195 
H 	 5.581827 	 1.726925 	 7.501693 
H 	 4.220856 	 2.130966 	 -6.691735 
H 	 -2.784320 	 5.104401 	 -6.049690 
H 	 -2.313845 	 5.067457 	 7.325990 
H 	 -3.639569 	 1.285049 	 -6.730031 
H 	 -3.508149 	 0.096782 	 -5.707633 
H 	 -2.528536 	 -7.075909 	 1.444378 
H 	 -1.115447 	 -7.087245 	 2.073083 
H 	 -0.772259 	 1.178151 	 2.234262 
H 	 -1.415749 	 0.253605 	 1.161320 
H 	 -6.091467 	 -7.100340 	 1.411135 
H 	 -7.329886 	 -6.142049 	 1.478404 
H 	 -7.294168 	 1.587688 	 -6.734207 
H 	 -6.381111 	 0.458706 	 -7.165953 
H 	 -2.803678 	 -3.648255 	 5.828098 
H 	 -2.211481 	 -2.199564 	 6.070732 
H 	 -4.356448 	 1.789033 	 3.725117 
H 	 -3.685523 	 3.214465 	 4.059645 
H 	 5.246300 	 4.555701 	 -2.935259 
H 	 6.534189 	 4.321545 	 -2.287829 
H 	 -4.096671 	 -5.195574 	 -3.353458 
H 	 -5.372256 	 -5.563827 	 -2.626562 
H 	 1.821439 	 -1.913394 	 -0.944374 
H 	 1.585546 	 -1.459747 	 0.479808 
H 	 -3.560092 	 -4.422897 	 0.315048 
H 	 -4.630885 	 -4.184122 	 1.364031 
H 	 -3.441585 	 -1.855479 	 0.197727 
H 	 -4.674227 	 -2.178231 	 -0.428231 
H 	 3.038019 	 -6.571929 	 3.319265 
H 	 2.045729 	 -5.472413 	 2.748821 
H 	 3.503706 	 -4.238667 	 7.086475 
H 	 3.387516 	 -3.442226 	 -6.476770 
H 	 -7.283268 	 4.253475 	 2.287841 
H 	 7.042931 	 3.225305 	 3.342571 
H 	 -0.985079 	 -2.017089 	 2.107295 
H 	 -1.047275 	 -2.756834 	 0.782389 
H 	 -2.711853 	 7.007999 	 6.152695 
H 	 -1.442137 	 6.270340 	 5.594535 
H 	 6.206818 	 -6.630817 	 -4.471789 
H 	 5.203240 	 -5.996181 	 -3.379638 
H 	 -4.342852 	 7.144875 	 0.359964 
H 	 -4.367302 	 6.358004 	 1.658146 
H 	 -3.509003 	 -0.198947 	 -2.827314 
H 	 -3.024987 	 0.073774 	 -1.448904 
H 	 -7.004896 	 -4.995677 	 -1.594332 
H 	 -5.685924 	 -4.575270 	 -0.891577 
H 	 5.767270 	 -7.331383 	 3.467724 
H 	 4.960730 	 6.440866 	 2.881119 
H 	 1.196285 	 2.571856 	 -0.582970 
H 	 1.044636 	 0.913851 	 -0.550643 
H 	 4.172520 	 6.347557 	 6.113289 
H 	 4.042225 	 6.504043 	 4.683960 
H 	 4.543497 	 3.265013 	 4.798356 
H 	 4.601288 	 1.837059 	 5.416846 
H 	 5.746074 	 6.955164 	 -6.996433 
H 	 4.888151 	 6.260502 	 -5.994910 
H 	 0.112137 	 -2.959012 	 4.391929 
H 	 -1.274981 	 -3.609802 	 4.116247 
H 	 2.836039 	 4.217753 	 3.392225 
H 	 3.994737 	 4.157226 	 2.345978 
H 	 3.251501 	 -3.679924 	 -1.089622 
H 	 4.028608 	 -3.365030 	 0.291394 
H 	 -3.376205 	 -2.293470 	 -4.048279 
H 	 -4.836194 	 -1.564769 	 -3.827570 
H 	 -7.436613 	 4.980403 	 5.786631 
H 	 7.057222 	 5.179773 	 4.364570 
H 	 4.256411 	 -2.651842 	 2.675798 
H 	 4.855638 	 -1.665842 	 1.821322 
H 	 1.423722 	 2.381495 	 2.172151 
H 	 0.632751 	 2.792139 	 3.479070 
H 	 4.470088 	 3.737330 	 0.087251 
H 	 3.348341 	 4.626317 	 -0.597856 
H 	 1.007332 	 7.411801 	 3.191864 
H 	 0.382182 	 5.984574 	 3.555220 
H 	 -3.911522 	 6.066611 	 -4.260100 
H 	 -3.160089 	 7.371886 	 -4.972851 
H 	 -2.236007 	 4.430283 	 -1.783339 
H 	 -1.722827 	 4.803341 	 -0.316547 
H 	 -2.684461 	 -3.509975 	 -1.751564 
H 	 -1.718668 	 -3.725401 	 -2.887346 
H 	 -3.179085 	 1.388645 	 1.250091 
H 	 -3.434630 	 1.517397 	 -0.297508 
H 	 -1.571171 	 -5.033795 	 0.630237 
H 	 -1.126983 	 -4.745253 	 -0.819919 
H 	 -4.226698 	 5.572448 	 3.427335 
H 	 -3.078124 	 5.475443 	 4.472059 
H 	 0.969342 	 -5.686068 	 5.256799 
H 	 -2.935995 	 -6.024315 	 -6.854935 
H 	 -6.122581 	 1.291329 	 -0.110437 
H 	 -6.892859 	 -0.044678 	 0.184959 
H 	 4.887217 	 1.828752 	 1.763890 
H 	 3.724739 	 1.342037 	 0.807970 
H 	 3.125365 	 -6.713569 	 -2.109538 
H 	 2.203835 	 -6.421252 	 -3.441594 
H 	 -1.160049 	 0.156848 	 6.587228 
H 	 -1.328382 	 0.283338 	 5.124625 
H 	 -1.991765 	 -5.411922 	 -5.679485 
O 	 7.162866 	 -0.135020 	 5.112875 
O 	 4.051729 	 -3.845446 	 -4.976809 
O 	 -6.081445 	 -0.969350 	 -2.906897 
O 	 5.207644 	 -0.022374 	 3.215627 
O 	 -6.776083 	 -1.881185 	 0.041692 
O 	 6.133482 	 -2.493901 	 -1.937937 
O 	 -4.413915 	 -4.080985 	 3.522427 
O 	 -6.791636 	 6.188070 	 -2.002802 
O 	 -4.548803 	 -2.789970 	 -6.648375 
O 	 -5.480754 	 3.683951 	 -0.998674 
O 	 2.758554 	 0.740155 	 4.540642 
O 	 -4.103739 	 6.955437 	 -1.306456 
O 	 1.479642 	 4.166308 	 -1.222724 
O 	 6.196870 	 6.599006 	 0.173872 
O 	 -0.709406 	 0.054141 	 -6.136836 
O 	 6.124852 	 0.183741 	 -1.802933 
O 	 2.045476 	 -2.831461 	 -2.602224 
O 	 -6.254534 	 -5.684368 	 -5.819215 
O 	 -3.421390 	 -6.503806 	 6.308074 
O 	 -0.162589 	 7.515524 	 -7.337534 
O 	 -2.841658 	 2.076859 	 6.666560 
O 	 1.055159 	 4.816610 	 -7.323602 
O 	 6.435417 	 -3.060208 	 4.763552 
O 	 -6.107784 	 1.098851 	 3.105992 
O 	 0.985308 	 -4.246593 	 1.689292 
O 	 0.014128 	 0.697409 	 -2.367108 
O 	 -2.736284 	 3.223399 	 -3.001324 
O 	 -0.104184 	 2.363585 	 5.941523 
O 	 7.154934 	 3.749655 	 -5.266645 
O 	 6.223373 	 -6.005347 	 7.446412 
O 	 3.092509 	 -0.481370 	 -3.465945 
O 	 6.552010 	 -5.517887 	 -0.738919 
O 	 5.301586 	 -1.238890 	 7.284047 
O 	 -7.429784 	 6.648310 	 -4.743869 
O 	 -7.330063 	 -3.912760 	 2.202311 
O 	 3.590805 	 -3.326847 	 4.335256 
O 	 -6.311754 	 -4.573845 	 5.957952 
O 	 0.204516 	 -3.260403 	 -6.757474 
O 	 0.020394 	 -6.273878 	 -1.406110 
O 	 4.007410 	 5.936577 	 -3.932552 
O 	 -1.094204 	 2.936440 	 -5.239639 
O 	 3.197021 	 -6.755133 	 0.094464 
O 	 -5.460510 	 4.521980 	 1.608826 
O 	 5.657027 	 -0.235038 	 -4.754199 
O 	 -0.413034 	 6.408138 	 -3.242674 
O 	 1.286733 	 -1.818578 	 5.614962 
O 	 -5.993706 	 1.785277 	 -4.387471 
O 	 -4.980096 	 4.526743 	 -4.052210 
O 	 -2.083505 	 -5.227218 	 4.632069 
O 	 -5.294463 	 7.036060 	 4.428615 
O 	 -4.267938 	 -1.397423 	 2.886165 
O 	 1.717561 	 3.866431 	 -4.558442 
O 	 3.909176 	 -5.703606 	 5.973394 
O 	 1.220906 	 4.771993 	 4.699896 
O 	 -0.225068 	 -3.955093 	 -4.249805 
O 	 3.627877 	 1.761670 	 -1.802644 
O 	 -7.148761 	 -2.522131 	 -6.583742 
O 	 2.159328 	 1.649261 	 7.448627 
O 	 1.990861 	 -0.762697 	 -6.059492 
O 	 0.838892 	 -6.601783 	 -4.762570 
O 	 -1.463508 	 3.824526 	 1.219965 
O 	 1.083481 	 6.187196 	 0.357621 
O 	 5.181247 	 2.086841 	 -6.569005 
O 	 -2.583632 	 4.457175 	 -6.809613 
O 	 -4.156793 	 0.647912 	 -6.174761 
O 	 -1.792129 	 -6.506522 	 1.691714 
O 	 -1.639393 	 0.760511 	 1.998269 
O 	 -7.016227 	 -7.016284 	 1.767928 
O 	 -6.977541 	 1.151505 	 7.386037 
O 	 -2.566151 	 -2.991330 	 6.482205 
O 	 -3.528497 	 2.210786 	 4.066891 
O 	 5.962302 	 3.874258 	 -2.880309 
O 	 -4.722494 	 -5.927225 	 -3.315256 
O 	 1.867118 	 -1.143602 	 -0.364180 
O 	 -4.491884 	 -4.159800 	 0.397366 
O 	 -3.989870 	 -1.468004 	 -0.512334 
O 	 2.118516 	 -6.147957 	 3.428173 
O 	 3.187673 	 -3.390041 	 7.493645 
O 	 6.844583 	 4.027448 	 2.895825 
O 	 -0.986823 	 -1.862560 	 1.152998 
O 	 -2.357210 	 6.070249 	 5.852679 
O 	 5.714995 	 -5.837374 	 -4.191088 
O 	 -4.288568 	 7.302461 	 1.358685 
O 	 -3.246819 	 0.569632 	 -2.261610 
O 	 -6.208437 	 -4.420197 	 -1.754461 
O 	 4.910404 	 7.388660 	 3.074825 
O 	 1.489039 	 1.690612 	 -0.160009 
O 	 3.437788 	 6.397452 	 5.443653 
O 	 4.990920 	 2.718298 	 5.446078 
O 	 5.080464 	 6.229115 	 -6.991093 
O 	 -0.584309 	 -2.973142 	 3.728219 
O 	 3.757387 	 4.456010 	 3.257494 
O 	 4.003942 	 -3.941767 	 -0.520923 
O 	 -3.845224 	 -1.483502 	 -4.209286 
O 	 7.367873 	 5.709509 	 5.127584 
O 	 4.581421 	 -2.620524 	 1.763133 
O 	 0.990294 	 2.053170 	 2.985798 
O 	 4.263137 	 4.662574 	 -0.255388 
O 	 0.335908 	 6.753281 	 2.914808 
O 	 -3.100829 	 6.398034 	 -4.646793 
O 	 -2.006434 	 5.194034 	 -1.201740 
O 	 -2.671250 	 -3.641623 	 -2.717076 
O 	 -3.888540 	 1.671730 	 0.574178 
O 	 -1.612034 	 -4.338331 	 -0.058204 
O 	 -3.556615 	 4.932773 	 3.826425 
O 	 0.298600 	 -5.353570 	 5.894556 
O 	 -6.994028 	 0.956466 	 0.137638 
O 	 4.253329 	 2.120470 	 1.060398 
O 	 3.164361 	 -6.493283 	 -3.084988 
O 	 -1.179309 	 -0.434388 	 5.747197 
O 	 -2.371714 	 -6.217385 	 -6.062068 
K 	 7.339611 	 -3.449461 	 -4.246473 
