333
conformation = 28
H 	 7.137271 	 -1.059803 	 5.306347 
H 	 7.127744 	 0.441594 	 5.983822 
H 	 3.590973 	 -3.975943 	 -4.117902 
H 	 4.737500 	 -4.599346 	 -4.853962 
H 	 -5.793342 	 -1.007481 	 -1.997320 
H 	 -6.266264 	 -0.010433 	 -3.203930 
H 	 4.532342 	 0.061768 	 3.881565 
H 	 6.051971 	 0.040212 	 3.715557 
H 	 -6.814198 	 -2.383998 	 0.924648 
H 	 -7.397613 	 -2.237440 	 -0.540816 
H 	 5.476008 	 -2.966260 	 -1.464147 
H 	 6.033692 	 -1.481319 	 -1.765324 
H 	 -3.697986 	 -4.663398 	 4.044805 
H 	 -4.138539 	 -3.212980 	 3.570613 
H 	 -7.302400 	 6.166738 	 -1.135718 
H 	 -5.917302 	 6.652121 	 -1.612951 
H 	 -3.890809 	 -2.679087 	 -7.311067 
H 	 -4.381565 	 -1.997127 	 -5.986596 
H 	 -5.776665 	 4.403397 	 -1.651965 
H 	 -4.589484 	 3.626260 	 -1.359808 
H 	 2.273541 	 -0.100460 	 5.016081 
H 	 2.118645 	 1.241675 	 4.109502 
H 	 -3.248259 	 6.400329 	 -1.312229 
H 	 -3.994600 	 -7.362995 	 -2.080338 
H 	 1.272712 	 4.366575 	 -2.112114 
H 	 1.338849 	 4.917527 	 -0.623511 
H 	 5.629943 	 5.992134 	 0.539774 
H 	 6.774389 	 7.039436 	 0.950169 
H 	 0.245911 	 -0.146812 	 -6.139495 
H 	 -0.769174 	 0.921223 	 -5.659248 
H 	 5.345353 	 0.813694 	 -1.761887 
H 	 6.815538 	 0.641450 	 -1.140639 
H 	 2.310967 	 -1.935813 	 -2.863978 
H 	 1.312774 	 -3.291967 	 -3.036161 
H 	 -5.458254 	 -5.591826 	 -5.171379 
H 	 -6.460273 	 -6.562069 	 -5.674146 
H 	 -2.884999 	 -6.112174 	 5.634649 
H 	 -4.207541 	 -6.905187 	 6.148220 
H 	 -0.939465 	 -7.154216 	 -6.961311 
H 	 0.160358 	 -6.761163 	 6.952214 
H 	 -3.190804 	 2.092456 	 5.847513 
H 	 -2.830126 	 2.934441 	 7.180694 
H 	 0.470020 	 5.549685 	 -7.239746 
H 	 0.615963 	 4.020141 	 7.510521 
H 	 6.858871 	 -3.601331 	 5.614851 
H 	 5.557985 	 -3.115534 	 4.887939 
H 	 -6.474633 	 0.734832 	 2.414843 
H 	 -6.510337 	 0.670192 	 3.992633 
H 	 0.744607 	 -4.185368 	 0.723029 
H 	 0.434494 	 -3.885126 	 2.272951 
H 	 0.021600 	 -0.264427 	 -1.980892 
H 	 -0.865464 	 0.738102 	 -2.764313 
H 	 -2.066613 	 3.337149 	 -3.751298 
H 	 -2.860959 	 2.305079 	 -2.757350 
H 	 0.319735 	 1.910043 	 6.811727 
H 	 -1.058148 	 2.432535 	 6.199783 
H 	 6.489951 	 3.519190 	 -5.910946 
H 	 6.632664 	 3.733263 	 -4.420980 
H 	 6.995837 	 -5.914316 	 6.758423 
H 	 6.457355 	 -5.273415 	 -6.905311 
H 	 3.217796 	 0.312470 	 -2.815427 
H 	 4.090888 	 -0.507404 	 -3.873956 
H 	 6.394476 	 -6.460785 	 -0.713564 
H 	 5.767811 	 -5.045227 	 -0.529666 
H 	 5.105008 	 -1.171733 	 -6.610966 
H 	 4.682519 	 -2.084714 	 7.129110 
H 	 7.091477 	 5.779786 	 -5.098638 
H 	 -7.191046 	 6.293390 	 -3.780442 
H 	 -6.359018 	 -4.101176 	 2.667705 
H 	 7.026816 	 -3.726035 	 2.936631 
H 	 3.469896 	 -4.287380 	 4.685196 
H 	 2.789078 	 -2.796658 	 4.537368 
H 	 -5.801772 	 -4.749301 	 6.796106 
H 	 -5.591996 	 -4.167649 	 5.386414 
H 	 -0.507326 	 -3.058763 	 -7.254255 
H 	 0.755321 	 -3.976867 	 -7.224886 
H 	 -0.223579 	 -6.690570 	 -0.469625 
H 	 -0.278943 	 -6.812882 	 -2.055043 
H 	 3.996638 	 6.814704 	 -3.722124 
H 	 3.072909 	 5.597160 	 -3.959852 
H 	 -1.232460 	 3.676943 	 -5.676409 
H 	 -0.009701 	 3.022848 	 -4.931823 
H 	 3.456867 	 -5.888202 	 0.264278 
H 	 4.098672 	 -7.329423 	 0.507645 
H 	 -5.311686 	 4.393326 	 0.649078 
H 	 -5.042061 	 3.524277 	 1.883213 
H 	 6.181527 	 0.269487 	 -3.926577 
H 	 5.613316 	 0.548680 	 -5.305758 
H 	 -0.504759 	 6.067815 	 -2.357059 
H 	 -1.338206 	 6.446048 	 -3.622658 
H 	 1.548972 	 -1.968156 	 6.609329 
H 	 0.507019 	 -1.340092 	 5.625281 
H 	 -6.733449 	 2.382093 	 -4.548193 
H 	 -5.488179 	 1.616171 	 -5.168947 
H 	 -4.127964 	 3.915755 	 -3.867921 
H 	 -5.639967 	 4.029846 	 -4.302093 
H 	 -0.464817 	 -5.351525 	 5.291023 
H 	 -1.968607 	 -5.657343 	 3.815929 
H 	 -5.921865 	 6.302671 	 4.604823 
H 	 -5.641853 	 -7.267438 	 3.827917 
H 	 -3.545610 	 -0.698228 	 2.797188 
H 	 -5.042007 	 -0.767356 	 2.945330 
H 	 2.124332 	 3.073757 	 -4.873672 
H 	 1.509676 	 4.215479 	 -5.425636 
H 	 3.351618 	 -6.565730 	 5.823183 
H 	 4.609472 	 -6.044713 	 6.640686 
H 	 2.020942 	 5.252209 	 5.327162 
H 	 0.817586 	 4.233513 	 5.373630 
H 	 0.084010 	 -4.922893 	 -4.447638 
H 	 0.108211 	 -3.525916 	 -4.974413 
H 	 4.235895 	 2.549167 	 -1.676004 
H 	 2.921629 	 1.783285 	 -1.145599 
H 	 7.320022 	 -1.828103 	 -7.133085 
H 	 -6.230869 	 -2.663827 	 -6.827414 
H 	 2.077948 	 0.648814 	 -7.303750 
H 	 2.599884 	 1.819760 	 6.657833 
H 	 1.554279 	 -1.590473 	 -6.136057 
H 	 2.327692 	 -0.692493 	 -5.065732 
H 	 0.823535 	 -6.767874 	 -5.677578 
H 	 0.444671 	 -7.286640 	 -4.230787 
H 	 -1.756620 	 4.225175 	 2.151025 
H 	 -1.672789 	 2.937648 	 1.445663 
H 	 1.810915 	 6.876587 	 0.360336 
H 	 0.759713 	 6.173948 	 1.345506 
H 	 5.341628 	 1.772970 	 7.510792 
H 	 4.248785 	 1.910167 	 -6.442223 
H 	 -2.972284 	 5.147284 	 -6.054205 
H 	 -2.380577 	 5.074146 	 7.358395 
H 	 -3.530311 	 0.799797 	 -6.833723 
H 	 -3.547741 	 0.128349 	 -5.397249 
H 	 -2.556074 	 -7.032557 	 1.631856 
H 	 -0.968568 	 -7.185512 	 1.808997 
H 	 -0.782211 	 1.084275 	 2.421514 
H 	 -1.282852 	 -0.063837 	 1.520163 
H 	 -6.015524 	 -6.995044 	 1.726404 
H 	 -7.165531 	 -5.989327 	 1.639955 
H 	 -7.207257 	 1.646051 	 -6.683943 
H 	 -6.284183 	 0.497709 	 -7.038867 
H 	 -2.668793 	 -3.705835 	 5.849440 
H 	 -2.220935 	 -2.230473 	 5.956747 
H 	 -4.234677 	 1.765882 	 3.777410 
H 	 -3.614509 	 3.156206 	 3.810435 
H 	 5.279653 	 4.541515 	 -2.928961 
H 	 6.743499 	 4.210563 	 -2.376623 
H 	 -3.883710 	 -5.302187 	 -3.217751 
H 	 -5.322189 	 -5.432946 	 -2.717092 
H 	 1.892214 	 -1.958419 	 -0.811764 
H 	 1.555271 	 -1.359513 	 0.592814 
H 	 -3.449322 	 -4.230475 	 0.446201 
H 	 -4.701551 	 -4.022114 	 1.354522 
H 	 -3.365794 	 -1.766478 	 0.267199 
H 	 -4.777381 	 -2.016744 	 -0.426574 
H 	 3.091474 	 -6.499849 	 3.289526 
H 	 1.970103 	 -5.588288 	 2.676076 
H 	 3.015523 	 -4.172119 	 7.181212 
H 	 3.570044 	 -3.644669 	 -6.452058 
H 	 -7.349418 	 3.973717 	 2.268927 
H 	 7.038580 	 3.299622 	 3.576530 
H 	 -1.054936 	 -2.034952 	 2.106238 
H 	 -0.955727 	 -2.670760 	 0.711405 
H 	 -2.747047 	 6.992828 	 6.061884 
H 	 -1.347898 	 6.282927 	 5.996796 
H 	 6.249390 	 -6.725047 	 -4.456101 
H 	 5.327999 	 -6.168467 	 -3.387662 
H 	 -4.326281 	 7.211717 	 0.353656 
H 	 -4.580443 	 6.449148 	 1.720779 
H 	 -3.267692 	 -0.290752 	 -2.805100 
H 	 -3.219930 	 0.132942 	 -1.295715 
H 	 -6.995999 	 -4.850680 	 -1.507403 
H 	 -5.604135 	 -4.443145 	 -0.801695 
H 	 5.897355 	 -7.200161 	 3.233421 
H 	 4.992273 	 6.464131 	 2.971809 
H 	 1.263817 	 2.564738 	 -0.509547 
H 	 1.032498 	 1.061270 	 -0.550317 
H 	 3.955917 	 6.258270 	 6.425321 
H 	 4.179735 	 6.612433 	 4.783478 
H 	 4.417289 	 3.251137 	 4.814962 
H 	 4.688401 	 1.909927 	 5.346852 
H 	 5.623223 	 7.021622 	 -7.085693 
H 	 4.557352 	 6.246600 	 -6.110403 
H 	 0.318774 	 -2.755302 	 4.226319 
H 	 -1.023335 	 -3.637765 	 4.404277 
H 	 2.782491 	 4.292555 	 3.470014 
H 	 3.988609 	 4.226172 	 2.512944 
H 	 3.388183 	 -3.595989 	 -1.014484 
H 	 4.143933 	 -3.310889 	 0.405172 
H 	 -3.351642 	 -2.320981 	 -3.770698 
H 	 -4.635515 	 -1.389473 	 -3.720754 
H 	 7.339534 	 4.939453 	 5.779408 
H 	 7.055005 	 5.409395 	 4.405024 
H 	 4.211155 	 -2.911824 	 2.623330 
H 	 4.686273 	 -1.589416 	 1.809072 
H 	 1.448807 	 2.321933 	 2.193841 
H 	 0.653853 	 2.867970 	 3.379830 
H 	 4.446793 	 3.876635 	 0.329696 
H 	 3.410628 	 4.630065 	 -0.531308 
H 	 1.068329 	 7.393112 	 3.180368 
H 	 0.599204 	 6.024124 	 3.675348 
H 	 -4.015010 	 6.017532 	 -4.487523 
H 	 -3.220668 	 7.286150 	 -4.935378 
H 	 -2.132153 	 4.462925 	 -1.734121 
H 	 -1.633649 	 4.685238 	 -0.294292 
H 	 -2.667873 	 -3.548010 	 -1.615792 
H 	 -1.785039 	 -3.670511 	 -2.977957 
H 	 -3.080290 	 1.321109 	 1.371297 
H 	 -3.444194 	 1.515939 	 -0.184196 
H 	 -1.464217 	 -5.090196 	 0.699313 
H 	 -1.286237 	 -4.884132 	 -0.792820 
H 	 -4.161698 	 5.496451 	 3.598177 
H 	 -2.986220 	 5.403576 	 4.537277 
H 	 1.110719 	 -5.157096 	 5.193102 
H 	 -2.950008 	 -5.940413 	 -6.690295 
H 	 -6.077303 	 1.397629 	 0.007720 
H 	 -6.685084 	 -0.031065 	 0.215638 
H 	 4.758996 	 1.462350 	 1.804744 
H 	 3.572615 	 1.469181 	 0.823723 
H 	 2.941319 	 -6.578214 	 -2.144792 
H 	 2.326134 	 -6.515134 	 -3.555326 
H 	 -1.090723 	 0.088508 	 6.636157 
H 	 -1.242238 	 0.224297 	 5.005010 
H 	 -2.089022 	 -5.339291 	 -5.568646 
O 	 7.198814 	 -0.100783 	 5.176577 
O 	 4.110279 	 -3.798348 	 -4.919126 
O 	 -5.965252 	 -0.936882 	 -2.978394 
O 	 5.205377 	 -0.064713 	 3.212841 
O 	 -6.779483 	 -1.824086 	 0.110763 
O 	 6.167759 	 -2.472472 	 -1.894109 
O 	 -4.390824 	 -4.166522 	 3.586776 
O 	 -6.718605 	 6.157028 	 -1.951411 
O 	 -4.514822 	 -2.790321 	 -6.583501 
O 	 -5.477838 	 3.736576 	 -0.986175 
O 	 2.754276 	 0.645687 	 4.579973 
O 	 -4.062917 	 6.934679 	 -1.274292 
O 	 1.567912 	 4.159704 	 -1.201207 
O 	 6.244928 	 6.691630 	 0.172201 
O 	 -0.714368 	 0.114069 	 -6.167176 
O 	 6.132151 	 0.220507 	 -1.723138 
O 	 2.090813 	 -2.844309 	 -2.532988 
O 	 -6.190886 	 -5.637189 	 -5.805343 
O 	 -3.355747 	 -6.524478 	 6.429177 
O 	 -0.015515 	 7.525800 	 -7.250400 
O 	 -2.876261 	 2.021816 	 6.812443 
O 	 1.092296 	 4.823907 	 -7.207438 
O 	 6.517897 	 -3.069637 	 4.847184 
O 	 -6.043526 	 1.073548 	 3.204453 
O 	 1.068493 	 -4.252436 	 1.648428 
O 	 0.015910 	 0.680815 	 -2.317059 
O 	 -2.688922 	 3.256670 	 -2.970092 
O 	 -0.091766 	 2.267314 	 5.988946 
O 	 7.191234 	 3.665806 	 -5.217204 
O 	 6.210780 	 -5.978125 	 7.381247 
O 	 3.207899 	 -0.459717 	 -3.393078 
O 	 6.619688 	 -5.516121 	 -0.673764 
O 	 5.234257 	 -1.299496 	 7.323769 
O 	 -7.404630 	 6.609018 	 -4.739117 
O 	 -7.227224 	 -3.858313 	 2.216174 
O 	 3.641436 	 -3.304840 	 4.405929 
O 	 -6.260973 	 -4.540616 	 5.985769 
O 	 0.334490 	 -3.210567 	 -6.784144 
O 	 0.032394 	 -6.248025 	 -1.354199 
O 	 3.991572 	 5.848305 	 -3.881189 
O 	 -0.970061 	 2.886424 	 -5.159378 
O 	 3.272060 	 -6.838721 	 0.157104 
O 	 -5.413589 	 4.431993 	 1.675683 
O 	 5.730619 	 -0.180507 	 -4.659559 
O 	 -0.431212 	 6.435469 	 -3.257739 
O 	 1.351383 	 -1.861062 	 5.617470 
O 	 -5.952665 	 1.822321 	 -4.280279 
O 	 -4.884830 	 4.536327 	 -3.985840 
O 	 -2.069656 	 -5.235020 	 4.692939 
O 	 -5.232039 	 7.040930 	 4.514583 
O 	 -4.255829 	 -1.356698 	 2.901550 
O 	 1.806276 	 3.886277 	 -4.524434 
O 	 3.949243 	 -5.763949 	 6.021023 
O 	 1.320996 	 4.778182 	 4.743923 
O 	 -0.137114 	 -4.000909 	 -4.166146 
O 	 3.727502 	 1.692718 	 -1.768929 
O 	 -7.131652 	 -2.466047 	 -6.475725 
O 	 2.115249 	 1.632637 	 7.491543 
O 	 2.052222 	 -0.729117 	 -6.039671 
O 	 0.945381 	 -6.571444 	 -4.707223 
O 	 -1.392976 	 3.874586 	 1.280432 
O 	 1.128281 	 6.185880 	 0.400613 
O 	 5.231261 	 2.067728 	 -6.462295 
O 	 -2.542486 	 4.506753 	 -6.733700 
O 	 -4.080507 	 0.595921 	 -6.023375 
O 	 -1.714081 	 -6.545477 	 1.753899 
O 	 -1.613907 	 0.751250 	 2.012924 
O 	 -7.013262 	 -6.936628 	 1.828535 
O 	 -6.907557 	 1.128201 	 7.460040 
O 	 -2.459825 	 -3.013289 	 6.521659 
O 	 -3.446891 	 2.208432 	 4.092518 
O 	 5.970619 	 3.880990 	 -2.855924 
O 	 -4.631183 	 -5.955748 	 -3.228751 
O 	 1.860587 	 -1.110939 	 -0.318712 
O 	 -4.446403 	 -4.131579 	 0.441402 
O 	 -3.963166 	 -1.501611 	 -0.452346 
O 	 2.168927 	 -6.201896 	 3.423634 
O 	 3.258862 	 -3.348061 	 -7.306691 
O 	 6.825958 	 4.028670 	 2.977531 
O 	 -0.971949 	 -1.835437 	 1.180139 
O 	 -2.293891 	 6.104940 	 5.865502 
O 	 5.763415 	 -5.893647 	 -4.246296 
O 	 -4.279355 	 7.277259 	 1.334076 
O 	 -3.221247 	 0.525199 	 -2.204919 
O 	 -6.116919 	 -4.414601 	 -1.707311 
O 	 5.003078 	 7.422979 	 3.154518 
O 	 1.583409 	 1.738140 	 -0.055153 
O 	 3.578792 	 6.407741 	 5.530714 
O 	 4.985769 	 2.818480 	 5.484815 
O 	 5.090038 	 6.207326 	 -6.951315 
O 	 -0.533266 	 -3.015615 	 3.778485 
O 	 3.733074 	 4.585097 	 3.367848 
O 	 4.104046 	 -3.915760 	 -0.431403 
O 	 -3.706854 	 -1.543098 	 -4.266223 
O 	 7.449456 	 5.699049 	 5.212294 
O 	 4.597682 	 -2.579990 	 1.807609 
O 	 0.974497 	 2.065688 	 2.982802 
O 	 4.337395 	 4.703682 	 -0.196864 
O 	 0.405660 	 6.691630 	 2.963095 
O 	 -3.091595 	 6.375950 	 -4.599894 
O 	 -1.907320 	 5.180600 	 -1.121621 
O 	 -2.639102 	 -3.626895 	 -2.585105 
O 	 -3.812740 	 1.622175 	 0.717832 
O 	 -1.594529 	 -4.379110 	 0.007999 
O 	 -3.471365 	 4.901462 	 3.869192 
O 	 0.385880 	 -5.339274 	 5.830541 
O 	 -6.934870 	 0.932178 	 0.162902 
O 	 4.317398 	 2.065875 	 1.145142 
O 	 3.188419 	 -6.498418 	 -3.061458 
O 	 -1.086566 	 -0.360335 	 5.771876 
O 	 -2.394702 	 -6.211916 	 -5.947910 
K 	 7.367871 	 -3.474691 	 -4.212227 
