333
conformation = 5
H 	 -6.224510 	 3.952845 	 0.680926 
H 	 -5.509585 	 5.300403 	 1.334920 
H 	 5.348569 	 1.360965 	 6.017854 
H 	 6.234926 	 0.204981 	 5.513687 
H 	 -3.798682 	 4.180961 	 -6.616459 
H 	 -4.104621 	 4.874421 	 6.985449 
H 	 6.321421 	 4.962298 	 -0.877921 
H 	 -7.043622 	 5.076298 	 -0.674599 
H 	 -5.017287 	 2.491144 	 -3.812515 
H 	 -5.491051 	 2.896051 	 -5.268359 
H 	 -7.493907 	 2.140089 	 -5.896405 
H 	 -6.991830 	 3.440800 	 -6.505988 
H 	 -1.565128 	 0.406061 	 -0.957521 
H 	 -2.183336 	 1.853167 	 -1.222702 
H 	 -5.474192 	 -3.517631 	 -5.910140 
H 	 -3.952458 	 -3.403039 	 -6.383749 
H 	 -1.794558 	 2.196245 	 2.995236 
H 	 -2.234324 	 2.846940 	 4.256112 
H 	 -3.939531 	 -5.650155 	 -6.232239 
H 	 -2.649321 	 -6.531051 	 -5.958610 
H 	 4.313543 	 4.952024 	 0.346200 
H 	 3.990063 	 6.097312 	 -0.591526 
H 	 -1.481789 	 -3.747999 	 -5.941572 
H 	 -2.021038 	 -2.375177 	 -6.671316 
H 	 3.291219 	 -5.598479 	 -6.755636 
H 	 3.056331 	 -5.008138 	 -5.246318 
H 	 -7.319923 	 -4.122025 	 -4.495923 
H 	 -6.308253 	 -3.158254 	 -3.573117 
H 	 2.200145 	 4.916920 	 4.424708 
H 	 0.946255 	 5.890632 	 4.529326 
H 	 7.174531 	 5.480138 	 -6.322253 
H 	 -6.374451 	 5.492985 	 -5.585829 
H 	 4.317824 	 3.004012 	 7.252414 
H 	 3.296753 	 1.729085 	 7.223407 
H 	 -3.578689 	 -0.833726 	 5.173092 
H 	 -4.912064 	 -1.480655 	 4.591264 
H 	 -0.908918 	 -0.957408 	 1.031409 
H 	 -2.298501 	 -1.652555 	 1.173065 
H 	 0.960454 	 -2.072630 	 3.352407 
H 	 2.044718 	 -1.634175 	 2.300330 
H 	 -1.344711 	 7.190041 	 1.189170 
H 	 -1.020240 	 -7.075653 	 2.624666 
H 	 2.339681 	 -4.369886 	 2.973136 
H 	 2.494127 	 -5.922864 	 2.719375 
H 	 -6.021959 	 1.530008 	 0.882779 
H 	 -7.504911 	 1.929756 	 0.257327 
H 	 -4.553513 	 5.896334 	 -2.406797 
H 	 -4.734767 	 5.589946 	 -0.896161 
H 	 2.743734 	 1.032275 	 -3.786392 
H 	 2.217800 	 1.121607 	 -2.315349 
H 	 2.207856 	 4.727136 	 -6.849369 
H 	 1.040105 	 5.608768 	 -7.117554 
H 	 -0.178979 	 -6.910405 	 6.541064 
H 	 -1.018080 	 -7.641291 	 -7.365435 
H 	 2.337699 	 6.776979 	 1.970585 
H 	 0.939516 	 7.165920 	 1.547277 
H 	 -6.331115 	 -6.467503 	 4.297085 
H 	 -6.419035 	 -6.062833 	 5.804493 
H 	 -6.174679 	 -0.858285 	 2.078496 
H 	 -6.450337 	 -0.371696 	 3.527063 
H 	 5.096007 	 5.385865 	 7.285614 
H 	 5.947435 	 4.244911 	 6.539327 
H 	 -6.529897 	 -1.517741 	 -5.491037 
H 	 -7.263898 	 -0.093837 	 -5.468608 
H 	 6.949548 	 3.954483 	 3.560534 
H 	 6.652842 	 3.021400 	 2.464514 
H 	 -5.399691 	 -4.173119 	 5.208411 
H 	 -5.092330 	 -3.366574 	 6.427087 
H 	 -4.694901 	 1.022929 	 -1.722946 
H 	 -6.163238 	 1.388747 	 -1.877037 
H 	 5.399214 	 0.749351 	 -0.050619 
H 	 4.799057 	 2.065963 	 0.131265 
H 	 -3.954062 	 0.559717 	 2.276132 
H 	 -3.589296 	 0.624855 	 0.757701 
H 	 1.348789 	 1.682235 	 2.980926 
H 	 2.840128 	 1.176687 	 3.095711 
H 	 1.573936 	 -1.623263 	 -5.209774 
H 	 1.671462 	 -1.994163 	 -6.691567 
H 	 5.790867 	 -2.996824 	 6.494182 
H 	 5.056797 	 -4.307151 	 6.388335 
H 	 0.385895 	 -6.489853 	 4.282268 
H 	 1.662431 	 -6.543533 	 5.353926 
H 	 5.286175 	 -0.791825 	 -4.418393 
H 	 5.972735 	 -2.153608 	 -4.222976 
H 	 -3.683618 	 -5.295521 	 -3.930783 
H 	 -3.054604 	 -6.221543 	 -2.887428 
H 	 -6.834185 	 5.117824 	 6.310744 
H 	 -7.352449 	 5.498421 	 4.915129 
H 	 1.509147 	 -4.156365 	 -7.053116 
H 	 0.642532 	 -3.661196 	 6.706791 
H 	 3.508217 	 2.933167 	 1.891249 
H 	 2.410057 	 3.695328 	 1.205433 
H 	 -4.861930 	 -7.694574 	 5.814409 
H 	 -3.542837 	 6.566833 	 5.079985 
H 	 -2.355433 	 -5.915741 	 6.736332 
H 	 -3.573058 	 -6.013711 	 5.719275 
H 	 1.369591 	 -0.334015 	 0.777057 
H 	 0.081050 	 -0.832755 	 -0.742265 
H 	 -3.892346 	 -3.463262 	 0.367532 
H 	 -4.054889 	 -2.384883 	 -0.560333 
H 	 -1.550106 	 4.187850 	 -1.834583 
H 	 -3.009246 	 4.078149 	 -1.292660 
H 	 4.244493 	 -6.740282 	 5.228472 
H 	 3.554344 	 -5.410370 	 5.008208 
H 	 5.477668 	 -1.578102 	 1.277560 
H 	 6.768430 	 -0.819646 	 1.843679 
H 	 3.844671 	 -4.686213 	 0.575999 
H 	 2.795119 	 -5.685077 	 0.839194 
H 	 2.017348 	 0.083643 	 6.050946 
H 	 1.712321 	 1.239810 	 5.051944 
H 	 6.175423 	 -7.432294 	 -6.265077 
H 	 4.932391 	 6.687470 	 -5.701794 
H 	 -5.693095 	 2.943759 	 3.106912 
H 	 -4.209850 	 2.547821 	 3.415926 
H 	 4.180791 	 5.663751 	 3.025877 
H 	 4.400599 	 6.730178 	 1.897113 
H 	 3.693821 	 3.273987 	 4.266661 
H 	 4.295058 	 4.427020 	 5.115485 
H 	 2.848851 	 -1.777300 	 4.557710 
H 	 2.336494 	 -2.445133 	 5.863823 
H 	 -0.182419 	 -5.734120 	 -2.824887 
H 	 0.407164 	 -7.069551 	 -3.317906 
H 	 3.740282 	 -3.036276 	 -4.390768 
H 	 2.819031 	 -3.790920 	 -3.311588 
H 	 -7.386449 	 6.721389 	 2.875781 
H 	 6.206103 	 7.156318 	 3.439071 
H 	 -0.792380 	 -4.899283 	 4.217921 
H 	 -0.371796 	 -4.899064 	 2.704520 
H 	 -1.705229 	 6.290821 	 3.588931 
H 	 -1.511138 	 5.045659 	 4.528692 
H 	 -0.606491 	 -2.095657 	 -3.162424 
H 	 0.817927 	 -2.088153 	 -2.433024 
H 	 1.211881 	 6.136137 	 -2.394479 
H 	 0.565973 	 5.284965 	 -3.426554 
H 	 -4.144476 	 -2.117170 	 -3.233694 
H 	 -5.328136 	 -1.171091 	 -3.159157 
H 	 -5.352988 	 6.555418 	 3.608777 
H 	 -4.389715 	 5.446270 	 3.114501 
H 	 -0.807050 	 1.316213 	 1.184032 
H 	 -0.248342 	 2.803750 	 1.488488 
H 	 -2.444232 	 6.814160 	 -0.881952 
H 	 -1.751100 	 -6.734132 	 -0.531810 
H 	 7.168341 	 -5.406860 	 7.315649 
H 	 -6.338387 	 -5.611400 	 -6.821827 
H 	 -2.104028 	 -0.227862 	 6.910167 
H 	 -3.423690 	 -0.591728 	 -7.216743 
H 	 3.763817 	 3.049205 	 -5.580117 
H 	 3.530758 	 3.431425 	 -4.124674 
H 	 -1.619885 	 0.491333 	 -4.348746 
H 	 -2.634022 	 0.730779 	 -3.208276 
H 	 -1.438736 	 3.159471 	 -4.407826 
H 	 -2.718509 	 2.807285 	 -5.041356 
H 	 4.963465 	 -1.566886 	 -1.270229 
H 	 4.027468 	 -0.476843 	 -1.871730 
H 	 5.616892 	 0.755819 	 2.484137 
H 	 5.365304 	 1.517498 	 3.856134 
H 	 -5.328021 	 -5.580975 	 -2.241856 
H 	 -5.906247 	 -6.785582 	 -1.270461 
H 	 1.034631 	 2.963855 	 -2.445735 
H 	 0.845769 	 2.189667 	 -3.863582 
H 	 -0.738492 	 -2.975115 	 1.532402 
H 	 0.510821 	 -3.654716 	 0.906483 
H 	 -6.748652 	 -1.689209 	 5.874191 
H 	 7.142549 	 -1.034272 	 6.888902 
H 	 -2.314136 	 -2.762968 	 -4.259402 
H 	 -2.340553 	 -3.584771 	 -2.966795 
H 	 -1.585349 	 4.849181 	 7.443505 
H 	 -1.043117 	 4.963856 	 -6.124399 
H 	 -5.073077 	 0.031477 	 -6.115624 
H 	 -3.759394 	 0.459491 	 -5.554024 
H 	 -7.151091 	 -2.355732 	 -1.061620 
H 	 6.897488 	 -3.511982 	 -1.766328 
H 	 3.169760 	 -7.392106 	 -5.209709 
H 	 3.033701 	 5.878859 	 -5.150059 
H 	 6.106483 	 -3.636913 	 1.493823 
H 	 5.921499 	 -3.464170 	 0.015425 
H 	 6.560612 	 -6.650583 	 0.160489 
H 	 6.519789 	 6.783975 	 0.761099 
H 	 -7.148563 	 -3.003831 	 3.287518 
H 	 6.906474 	 -3.739401 	 4.252816 
H 	 2.031104 	 1.962923 	 -0.153596 
H 	 0.699148 	 1.331654 	 -0.621833 
H 	 4.807695 	 -5.706338 	 -1.251792 
H 	 5.927777 	 -5.851099 	 -2.273171 
H 	 5.218200 	 1.283873 	 -5.721060 
H 	 5.969687 	 1.554384 	 -4.345859 
H 	 -1.391781 	 2.666946 	 6.254419 
H 	 -2.781621 	 3.415632 	 6.460691 
H 	 -5.454746 	 -4.911761 	 1.211079 
H 	 -5.825848 	 -4.856836 	 -0.279543 
H 	 6.206531 	 2.308236 	 -1.903746 
H 	 6.904028 	 3.240588 	 -2.771249 
H 	 3.389765 	 -7.588732 	 -2.474841 
H 	 2.604290 	 -7.132897 	 -1.041105 
H 	 6.430450 	 -6.192242 	 -4.571392 
H 	 5.314763 	 -5.283134 	 -5.218075 
H 	 2.977560 	 -2.515985 	 -1.379337 
H 	 2.359617 	 -3.907386 	 -1.066906 
H 	 -1.948845 	 -3.842066 	 6.061833 
H 	 -1.195113 	 -2.599668 	 5.342000 
H 	 -0.278735 	 -5.534391 	 -6.391591 
H 	 0.200010 	 -5.102260 	 -4.951337 
H 	 -0.771149 	 1.513634 	 -6.396753 
H 	 0.296932 	 1.212445 	 7.359084 
H 	 -1.272058 	 6.404171 	 -3.427410 
H 	 -1.485784 	 6.516378 	 -4.879496 
H 	 0.368866 	 -0.093938 	 -4.008590 
H 	 0.902937 	 0.233365 	 -5.375850 
H 	 -2.274326 	 -4.377803 	 -1.132968 
H 	 -1.150495 	 -4.437166 	 -0.065980 
H 	 2.838124 	 -0.847651 	 0.670261 
H 	 -0.946187 	 -1.061323 	 3.388168 
H 	 -4.143132 	 6.232967 	 -4.739446 
H 	 -4.904465 	 4.933117 	 -4.408264 
H 	 6.847671 	 6.828892 	 -2.867341 
H 	 5.772409 	 6.282634 	 -3.743313 
H 	 5.069527 	 -1.769848 	 -6.704051 
H 	 4.204676 	 -1.446588 	 6.919460 
H 	 0.780561 	 5.020613 	 2.001716 
H 	 0.615091 	 5.242878 	 0.504849 
H 	 -0.027104 	 -0.433656 	 4.558327 
O 	 -5.763922 	 4.819422 	 0.505842 
O 	 6.021163 	 1.111067 	 5.313417 
O 	 -4.132470 	 3.998223 	 7.419349 
O 	 7.190440 	 4.958679 	 -1.383885 
O 	 -4.801113 	 3.071490 	 -4.568862 
O 	 -6.795623 	 2.469430 	 -6.540279 
O 	 -2.438510 	 0.912747 	 -1.089709 
O 	 -4.832688 	 -3.734307 	 -6.609568 
O 	 -2.578129 	 2.180777 	 3.643739 
O 	 -3.501724 	 -6.261720 	 -5.596816 
O 	 4.738496 	 5.728966 	 -0.057134 
O 	 -2.138726 	 -2.967761 	 -5.911416 
O 	 3.437464 	 -5.764822 	 -5.829520 
O 	 -6.736207 	 -3.356461 	 -4.429179 
O 	 1.272946 	 5.009592 	 4.175580 
O 	 -6.806398 	 5.148502 	 -6.417525 
O 	 4.008665 	 2.135781 	 -7.225452 
O 	 -4.291673 	 -0.730650 	 4.483301 
O 	 -1.461836 	 -1.527677 	 1.676221 
O 	 1.779362 	 -2.425688 	 2.948145 
O 	 -0.849058 	 7.065046 	 2.033021 
O 	 3.027567 	 -5.121298 	 2.955101 
O 	 -6.503821 	 1.911271 	 0.153219 
O 	 -4.143812 	 6.071312 	 -1.511475 
O 	 2.943345 	 0.724833 	 -2.895216 
O 	 1.992739 	 5.672670 	 -6.978062 
O 	 -0.764498 	 -6.723178 	 7.291700 
O 	 1.866158 	 -7.539495 	 1.333320 
O 	 -5.770086 	 -6.157170 	 5.017853 
O 	 -6.688910 	 -1.043600 	 2.864977 
O 	 5.049376 	 4.485300 	 6.815352 
O 	 -6.387880 	 -0.558572 	 -5.353814 
O 	 7.296985 	 3.744206 	 2.677662 
O 	 -5.457663 	 -3.266142 	 5.559474 
O 	 -5.370923 	 1.038913 	 -2.392588 
O 	 5.557211 	 1.632622 	 -0.279123 
O 	 -4.350707 	 0.383275 	 1.355962 
O 	 2.151285 	 1.693193 	 3.545011 
O 	 1.992238 	 -1.308861 	 -6.013236 
O 	 5.997374 	 -3.974096 	 6.354211 
O 	 0.853896 	 -6.985016 	 5.046535 
O 	 5.163592 	 -1.762525 	 -4.516777 
O 	 -3.491276 	 -5.387902 	 -3.010824 
O 	 -7.280414 	 4.718300 	 5.526600 
O 	 1.564445 	 -3.533509 	 7.064717 
O 	 3.255332 	 3.164032 	 1.014083 
O 	 -4.027485 	 6.739792 	 5.894682 
O 	 -3.026384 	 -5.411426 	 6.236351 
O 	 -0.102415 	 -0.252023 	 0.016611 
O 	 -3.331550 	 -2.892422 	 -0.191968 
O 	 -2.287171 	 3.560803 	 -1.712504 
O 	 3.669384 	 -6.065772 	 5.745605 
O 	 5.871802 	 -0.725170 	 1.364613 
O 	 3.175258 	 -5.160056 	 0.084281 
O 	 1.731955 	 1.025241 	 6.043139 
O 	 5.588317 	 6.748573 	 -6.407866 
O 	 -5.177637 	 2.432572 	 3.690431 
O 	 4.154689 	 6.623335 	 2.841508 
O 	 3.954730 	 4.194952 	 4.241706 
O 	 2.793817 	 -1.638757 	 5.523259 
O 	 0.505495 	 -6.112228 	 -3.392182 
O 	 3.054000 	 -3.738578 	 -4.243575 
O 	 7.153900 	 7.055413 	 3.713945 
O 	 -0.609780 	 -5.476828 	 3.478692 
O 	 -2.198608 	 5.634198 	 4.086702 
O 	 0.175884 	 -1.527124 	 -2.920746 
O 	 0.338024 	 5.731300 	 -2.606079 
O 	 -5.039314 	 -2.069519 	 -2.838470 
O 	 -5.011950 	 6.123890 	 2.771265 
O 	 -0.608940 	 1.983784 	 1.878305 
O 	 -1.566842 	 7.180429 	 -0.532829 
O 	 -6.966222 	 -6.053643 	 7.419695 
O 	 -2.760910 	 -0.952129 	 6.964585 
O 	 3.851308 	 3.821452 	 -4.972621 
O 	 -2.522432 	 0.798888 	 -4.206786 
O 	 -2.011742 	 3.501742 	 -5.120689 
O 	 4.091751 	 -1.167758 	 -1.162107 
O 	 5.145355 	 1.569508 	 2.861024 
O 	 -6.063874 	 -5.901626 	 -1.728111 
O 	 0.989925 	 3.101707 	 -3.450272 
O 	 -0.383656 	 -3.866034 	 1.259546 
O 	 -7.210994 	 -0.852768 	 6.126067 
O 	 -2.312475 	 -2.626091 	 -3.230823 
O 	 -1.266308 	 5.548880 	 -6.873002 
O 	 -4.245107 	 0.537774 	 -6.363158 
O 	 6.867012 	 -2.554939 	 -1.542239 
O 	 3.446730 	 6.649367 	 -4.776133 
O 	 5.388138 	 -3.533338 	 0.831061 
O 	 6.976880 	 -7.239820 	 0.843869 
O 	 7.062317 	 -3.692889 	 3.310660 
O 	 1.380316 	 2.004034 	 -0.878722 
O 	 5.750767 	 -5.507603 	 -1.367608 
O 	 5.959068 	 1.018496 	 -5.136267 
O 	 -1.905400 	 3.502399 	 6.108755 
O 	 -5.575190 	 -4.221675 	 0.513265 
O 	 6.559887 	 2.344264 	 -2.844654 
O 	 2.972118 	 7.019884 	 -1.612058 
O 	 6.225461 	 -5.285995 	 -4.863663 
O 	 2.293008 	 -3.165043 	 -1.694600 
O 	 -1.112519 	 -3.527103 	 5.644693 
O 	 -0.049079 	 -4.734148 	 -5.817580 
O 	 -0.697499 	 1.320574 	 -7.347347 
O 	 -1.926461 	 6.655238 	 -4.057072 
O 	 0.367459 	 0.641393 	 -4.669465 
O 	 -1.594844 	 -4.994135 	 -0.791449 
O 	 2.263122 	 -0.388381 	 1.317160 
O 	 -5.030219 	 5.926543 	 -4.459082 
O 	 6.220254 	 7.106825 	 -3.554377 
O 	 5.141378 	 -1.520528 	 7.215819 
O 	 0.778283 	 4.517259 	 1.148846 
O 	 -0.384353 	 -1.252551 	 4.215473 
K 	 -5.586435 	 1.526605 	 6.051317 
