333
conformation = 60
H 	 -5.992644 	 3.919590 	 0.413722 
H 	 -5.705311 	 5.266101 	 1.381985 
H 	 5.416224 	 1.022545 	 6.208582 
H 	 6.452243 	 0.363644 	 5.398458 
H 	 -4.342387 	 3.877298 	 -6.970054 
H 	 -4.233884 	 5.038717 	 6.841106 
H 	 6.013372 	 4.946118 	 -1.136308 
H 	 -7.414266 	 4.729563 	 -0.833096 
H 	 -5.145949 	 2.613538 	 -3.727603 
H 	 -5.678977 	 2.944558 	 -5.169244 
H 	 -7.675609 	 2.092313 	 -6.035908 
H 	 -7.104879 	 3.495973 	 -6.465404 
H 	 -1.744451 	 0.427407 	 -0.746020 
H 	 -2.677349 	 1.652211 	 -1.117755 
H 	 -5.435173 	 -3.352077 	 -5.932081 
H 	 -3.998966 	 -3.560151 	 -6.379141 
H 	 -1.961636 	 1.987494 	 3.027063 
H 	 -2.226300 	 2.319819 	 4.437662 
H 	 -4.135545 	 -5.341718 	 -6.190831 
H 	 -2.856155 	 -6.190441 	 -6.251600 
H 	 4.138474 	 4.596596 	 0.163692 
H 	 3.941799 	 5.874714 	 -0.693005 
H 	 -1.445622 	 -3.541548 	 -6.221201 
H 	 -2.244002 	 -2.317466 	 -6.707090 
H 	 3.144071 	 -5.707060 	 -6.837850 
H 	 3.008661 	 -5.060080 	 -5.370000 
H 	 -7.238576 	 -3.929847 	 -4.532041 
H 	 -6.316060 	 -2.886119 	 -3.767228 
H 	 1.885352 	 4.915102 	 4.107243 
H 	 0.926658 	 6.162567 	 4.039187 
H 	 7.085647 	 5.637897 	 -5.990427 
H 	 -6.280973 	 5.555051 	 -5.760324 
H 	 4.476863 	 2.755123 	 7.376930 
H 	 3.131828 	 1.875159 	 7.312488 
H 	 -3.467132 	 -0.292176 	 4.823904 
H 	 -4.438763 	 -1.560694 	 4.639750 
H 	 -0.990155 	 -1.015103 	 1.207026 
H 	 -2.469409 	 -1.602555 	 1.466778 
H 	 1.170546 	 -1.968384 	 3.364688 
H 	 2.344787 	 -1.741468 	 2.376613 
H 	 -1.450513 	 6.938340 	 1.336192 
H 	 -1.568930 	 -7.318351 	 2.822849 
H 	 2.600315 	 -4.162897 	 3.180220 
H 	 2.169457 	 -5.647133 	 2.764106 
H 	 -6.050342 	 1.195714 	 0.757160 
H 	 -7.461345 	 1.919261 	 0.282319 
H 	 -4.719209 	 6.401613 	 -2.051982 
H 	 -4.834642 	 5.636847 	 -0.695916 
H 	 2.338150 	 0.214498 	 -3.713266 
H 	 2.539212 	 1.071514 	 -2.400258 
H 	 1.730372 	 4.815211 	 -6.449150 
H 	 0.788294 	 5.741599 	 -7.065656 
H 	 -0.111407 	 -6.863271 	 6.547277 
H 	 -1.090737 	 -7.532769 	 -7.254264 
H 	 2.329996 	 6.751926 	 1.844577 
H 	 0.854254 	 7.094339 	 1.893098 
H 	 -6.735257 	 -6.704094 	 4.505118 
H 	 -6.305180 	 -6.327745 	 5.924762 
H 	 -6.060200 	 -1.091427 	 2.003823 
H 	 -6.551615 	 -0.449016 	 3.317645 
H 	 5.041802 	 5.285363 	 7.396264 
H 	 6.022646 	 4.489487 	 6.391646 
H 	 -6.830862 	 -1.407331 	 -4.969123 
H 	 -7.206051 	 0.133085 	 -5.125062 
H 	 7.004909 	 3.658339 	 3.617339 
H 	 6.168467 	 2.875414 	 2.666364 
H 	 -6.042581 	 -4.153813 	 5.050414 
H 	 -5.401890 	 -3.634777 	 6.279023 
H 	 -4.397271 	 0.937494 	 -2.077515 
H 	 -5.756348 	 1.629136 	 -1.733009 
H 	 5.505919 	 0.892233 	 0.259194 
H 	 4.847749 	 2.226226 	 0.200198 
H 	 -3.826265 	 0.304168 	 2.090289 
H 	 -3.826032 	 0.336528 	 0.526906 
H 	 1.339269 	 2.245533 	 3.166046 
H 	 2.319191 	 1.083190 	 2.712596 
H 	 2.314451 	 -1.925689 	 -5.587609 
H 	 1.534535 	 -1.535344 	 -6.906362 
H 	 5.279816 	 -3.688654 	 7.002912 
H 	 5.113652 	 -5.021612 	 6.273853 
H 	 0.609420 	 -6.593953 	 4.482373 
H 	 1.835821 	 -6.667069 	 5.479146 
H 	 5.280605 	 -1.056177 	 -4.678675 
H 	 6.033618 	 -2.381021 	 -4.452996 
H 	 -3.745499 	 -6.158163 	 -3.815227 
H 	 -2.948290 	 -6.160193 	 -2.443238 
H 	 -6.910625 	 5.045593 	 6.586936 
H 	 -7.054868 	 5.746525 	 5.260554 
H 	 0.888970 	 -3.918780 	 -7.181072 
H 	 0.424561 	 -3.518189 	 6.269046 
H 	 3.324077 	 2.554927 	 1.601556 
H 	 2.435554 	 3.628361 	 1.237189 
H 	 -4.604151 	 7.083239 	 5.301528 
H 	 -3.268407 	 6.460906 	 5.796943 
H 	 -2.478426 	 -6.093590 	 6.594295 
H 	 -3.827197 	 -5.570795 	 5.763330 
H 	 1.383176 	 -0.390491 	 0.640711 
H 	 -0.155346 	 -0.870636 	 -0.708632 
H 	 -4.238044 	 -2.828651 	 0.280978 
H 	 -3.401054 	 -2.209609 	 -0.818521 
H 	 -1.601196 	 4.148367 	 -1.734925 
H 	 -3.115068 	 4.455414 	 -1.813532 
H 	 4.366184 	 -6.753350 	 5.777019 
H 	 3.708941 	 -5.941695 	 4.659894 
H 	 5.456009 	 -1.752179 	 1.200839 
H 	 6.551579 	 -0.660823 	 1.568014 
H 	 3.890279 	 -4.754314 	 0.702403 
H 	 2.950413 	 -5.982746 	 0.593968 
H 	 2.329752 	 0.073372 	 6.036778 
H 	 1.749368 	 1.245553 	 5.207026 
H 	 5.779182 	 -7.396057 	 -6.850955 
H 	 4.977614 	 6.678502 	 -5.770680 
H 	 -5.961644 	 2.958021 	 3.081038 
H 	 -4.510532 	 2.688751 	 3.429380 
H 	 3.969648 	 5.788537 	 3.407005 
H 	 4.299433 	 6.369813 	 2.021526 
H 	 4.207923 	 3.421633 	 3.868698 
H 	 4.231767 	 4.350236 	 5.096459 
H 	 2.744203 	 -1.887572 	 4.669100 
H 	 2.379513 	 -2.221009 	 6.145054 
H 	 0.019338 	 -5.461456 	 -2.579315 
H 	 -0.184246 	 -6.664077 	 -3.387241 
H 	 3.814450 	 -3.250717 	 -4.321800 
H 	 2.635307 	 -3.818480 	 -3.342538 
H 	 6.953832 	 -7.542916 	 2.946722 
H 	 6.026305 	 7.073263 	 4.031507 
H 	 -0.960516 	 -4.727627 	 4.266691 
H 	 -0.736994 	 -4.747711 	 2.746369 
H 	 -1.760690 	 5.874236 	 3.658874 
H 	 -1.710428 	 4.648910 	 4.728110 
H 	 -0.791881 	 -1.947320 	 -2.890096 
H 	 0.718071 	 -2.302460 	 -2.410537 
H 	 0.865733 	 6.103106 	 -2.089289 
H 	 0.698306 	 4.814794 	 -2.910828 
H 	 -4.387183 	 -1.933323 	 -3.154386 
H 	 -5.336348 	 -0.802015 	 -2.998489 
H 	 -5.479870 	 6.580960 	 3.564636 
H 	 -4.141706 	 5.798658 	 3.267306 
H 	 -0.168265 	 1.230893 	 1.183642 
H 	 -0.300452 	 2.780144 	 1.329070 
H 	 -2.493385 	 6.881938 	 -0.901741 
H 	 -1.675545 	 -6.827616 	 -0.532363 
H 	 7.148467 	 -5.276929 	 7.044116 
H 	 -6.626997 	 -5.831518 	 -6.803577 
H 	 -1.823529 	 -0.519560 	 7.121965 
H 	 -3.263880 	 -0.549853 	 -7.247113 
H 	 3.515384 	 3.192262 	 -5.606874 
H 	 2.989304 	 3.576604 	 -4.261031 
H 	 -1.734086 	 0.754976 	 -4.492337 
H 	 -2.476319 	 0.846478 	 -3.183097 
H 	 -1.688441 	 3.702444 	 -4.280501 
H 	 -3.087811 	 3.435586 	 -4.809428 
H 	 4.974909 	 -1.511651 	 -1.497851 
H 	 3.804117 	 -0.618618 	 -2.073739 
H 	 5.300162 	 0.796462 	 2.490914 
H 	 5.138546 	 1.434345 	 3.919965 
H 	 -5.450016 	 -5.903829 	 -1.938588 
H 	 -6.628802 	 -6.681843 	 -1.141273 
H 	 0.956534 	 2.515886 	 -2.735670 
H 	 0.459519 	 2.676625 	 -4.285121 
H 	 -0.845366 	 -2.967647 	 1.455982 
H 	 0.625871 	 -3.578772 	 1.419617 
H 	 -6.646453 	 -1.892646 	 5.756779 
H 	 6.903244 	 -1.407058 	 6.293907 
H 	 -2.398767 	 -2.546276 	 -4.322872 
H 	 -2.513384 	 -3.683815 	 -3.346809 
H 	 -1.250795 	 5.176377 	 7.136909 
H 	 -1.951867 	 4.720331 	 -6.501999 
H 	 -4.825014 	 0.093059 	 -5.755186 
H 	 -3.663797 	 1.009426 	 -5.777604 
H 	 -7.158181 	 -2.249292 	 -1.996104 
H 	 6.613238 	 -3.353105 	 -1.708910 
H 	 3.271644 	 -7.247729 	 -5.055014 
H 	 2.962040 	 6.140727 	 -4.965463 
H 	 5.876489 	 -3.808156 	 1.902235 
H 	 6.178743 	 -3.524223 	 0.355543 
H 	 6.415519 	 -6.107935 	 0.339812 
H 	 6.574200 	 -7.642053 	 0.077276 
H 	 7.128382 	 -2.852916 	 3.290576 
H 	 6.309239 	 -3.891525 	 4.115282 
H 	 1.858978 	 2.138639 	 -0.200878 
H 	 0.826939 	 1.068749 	 -0.697036 
H 	 4.570724 	 -5.127411 	 -1.018538 
H 	 5.510275 	 -6.038396 	 -1.713784 
H 	 5.226300 	 1.258556 	 -5.551105 
H 	 6.083497 	 1.755111 	 -4.243860 
H 	 -1.352134 	 2.646225 	 6.573638 
H 	 -2.647150 	 3.480974 	 6.206405 
H 	 -5.942974 	 -4.863953 	 1.360003 
H 	 -5.813369 	 -4.882458 	 -0.209821 
H 	 5.997726 	 1.848826 	 -2.139624 
H 	 6.662911 	 3.226805 	 -2.369047 
H 	 2.609506 	 6.883137 	 -2.788530 
H 	 2.715365 	 -6.886942 	 -1.661019 
H 	 6.310163 	 -6.091287 	 -4.374491 
H 	 5.367321 	 -5.185516 	 -5.235303 
H 	 2.940752 	 -2.667955 	 -1.442403 
H 	 2.381103 	 -4.061307 	 -1.021853 
H 	 -2.112863 	 -3.967924 	 6.097428 
H 	 -1.580677 	 -2.699032 	 5.305435 
H 	 -0.265045 	 -5.591176 	 -6.250879 
H 	 0.188293 	 -5.003021 	 -4.844273 
H 	 -0.857611 	 1.892780 	 -6.363199 
H 	 0.080818 	 1.171616 	 7.341489 
H 	 -1.228260 	 6.167062 	 -3.348084 
H 	 -1.729904 	 6.625980 	 -4.695106 
H 	 0.123861 	 -0.237777 	 -3.837157 
H 	 0.687068 	 -0.079429 	 -5.222185 
H 	 -2.335516 	 -4.553593 	 -0.682324 
H 	 -0.896887 	 -4.820011 	 -0.147378 
H 	 2.828157 	 -0.568459 	 0.215418 
H 	 -1.080478 	 -1.214448 	 3.507040 
H 	 -4.200675 	 6.344514 	 -4.524956 
H 	 -4.793216 	 4.935956 	 -4.422016 
H 	 6.411929 	 6.061872 	 -3.042372 
H 	 5.269786 	 6.732182 	 -3.665702 
H 	 4.270770 	 -1.328531 	 -7.045116 
H 	 4.448493 	 -1.438199 	 6.406530 
H 	 0.802368 	 4.817533 	 2.020118 
H 	 0.911009 	 5.424202 	 0.581215 
H 	 -0.779750 	 -0.242706 	 4.618082 
O 	 -5.873431 	 4.890477 	 0.483853 
O 	 6.026351 	 1.215921 	 5.461118 
O 	 -4.075383 	 4.088459 	 7.018657 
O 	 6.903140 	 4.869886 	 -1.607384 
O 	 -5.012770 	 3.199241 	 -4.498102 
O 	 -6.913930 	 2.527038 	 -6.560205 
O 	 -2.671775 	 0.681891 	 -1.006868 
O 	 -4.907350 	 -3.861484 	 -6.580310 
O 	 -2.744746 	 2.152236 	 3.638934 
O 	 -3.691993 	 -6.105740 	 -5.738126 
O 	 4.535368 	 5.455916 	 -0.036831 
O 	 -2.241594 	 -3.006866 	 -6.005703 
O 	 3.497549 	 -5.738666 	 -5.917248 
O 	 -6.802165 	 -3.066855 	 -4.596805 
O 	 0.992345 	 5.189300 	 3.871461 
O 	 -6.990362 	 5.297320 	 -6.396636 
O 	 3.941980 	 2.045981 	 -7.133922 
O 	 -4.290995 	 -0.618104 	 4.373543 
O 	 -1.569138 	 -1.587487 	 1.906426 
O 	 1.975231 	 -2.411239 	 3.049342 
O 	 -1.147943 	 6.903453 	 2.269055 
O 	 2.913267 	 -5.114915 	 3.225591 
O 	 -6.479715 	 1.917452 	 0.222975 
O 	 -4.184140 	 5.949873 	 -1.349016 
O 	 3.010603 	 0.675060 	 -3.192274 
O 	 1.749259 	 5.579939 	 -7.001845 
O 	 -0.830121 	 -6.660052 	 7.234981 
O 	 1.633542 	 -7.648039 	 1.329650 
O 	 -5.964394 	 -6.369777 	 4.987831 
O 	 -6.859778 	 -0.963568 	 2.530503 
O 	 5.138381 	 4.491018 	 6.789962 
O 	 -6.513207 	 -0.532141 	 -5.305866 
O 	 6.869873 	 3.576663 	 2.661139 
O 	 -5.676955 	 -3.329496 	 5.427133 
O 	 -5.233550 	 1.179433 	 -2.462273 
O 	 5.479731 	 1.683447 	 -0.238845 
O 	 -4.431362 	 0.437655 	 1.316443 
O 	 2.246391 	 1.877305 	 3.286270 
O 	 1.768772 	 -1.262393 	 -5.975734 
O 	 5.738144 	 -4.243341 	 6.331429 
O 	 1.042292 	 -7.138134 	 5.197357 
O 	 5.170987 	 -2.018370 	 -4.491027 
O 	 -3.609863 	 -5.700380 	 -2.982894 
O 	 -7.297072 	 4.897737 	 5.682739 
O 	 1.188647 	 -3.424194 	 6.888560 
O 	 3.186934 	 3.125005 	 0.850457 
O 	 -4.135262 	 6.790665 	 6.093378 
O 	 -3.019036 	 -5.332279 	 6.285967 
O 	 -0.294916 	 -0.256592 	 0.046048 
O 	 -3.341516 	 -2.878276 	 -0.111547 
O 	 -2.471550 	 3.708906 	 -1.842032 
O 	 3.654358 	 -6.051339 	 5.641670 
O 	 5.575578 	 -0.824093 	 1.323785 
O 	 3.212576 	 -5.155576 	 0.103397 
O 	 1.762617 	 0.901234 	 6.179625 
O 	 5.647678 	 6.607056 	 -6.487994 
O 	 -5.413844 	 2.634407 	 3.798356 
O 	 3.847331 	 6.614050 	 2.853259 
O 	 3.829731 	 4.242890 	 4.198934 
O 	 2.863525 	 -1.555324 	 5.561001 
O 	 0.487038 	 -5.971668 	 -3.248943 
O 	 2.924292 	 -3.671991 	 -4.281122 
O 	 6.961628 	 6.935758 	 3.849210 
O 	 -0.717132 	 -5.306411 	 3.542082 
O 	 -2.239202 	 5.454470 	 4.401209 
O 	 0.167742 	 -1.642291 	 -2.869368 
O 	 0.241659 	 5.633724 	 -2.672792 
O 	 -5.229057 	 -1.749090 	 -2.709117 
O 	 -5.020955 	 6.066619 	 2.898953 
O 	 -0.467014 	 1.949480 	 1.800190 
O 	 -1.559434 	 7.117085 	 -0.607064 
O 	 -7.198944 	 -6.054617 	 7.366184 
O 	 -2.637747 	 -1.018918 	 7.049617 
O 	 3.547519 	 3.933999 	 -4.949359 
O 	 -2.636272 	 0.868277 	 -4.159600 
O 	 -2.134689 	 3.414163 	 -5.106478 
O 	 4.006070 	 -1.286826 	 -1.360985 
O 	 5.037708 	 1.676622 	 2.926174 
O 	 -6.372236 	 -5.895853 	 -1.644116 
O 	 0.771214 	 3.180487 	 -3.485973 
O 	 -0.301820 	 -3.807634 	 1.235231 
O 	 -7.244486 	 -1.087064 	 5.793466 
O 	 -2.594418 	 -2.690585 	 -3.394368 
O 	 -1.353340 	 5.423952 	 -6.840358 
O 	 -4.236567 	 0.589668 	 -6.390540 
O 	 6.919650 	 -2.454103 	 -1.454976 
O 	 3.484758 	 6.844927 	 -4.565143 
O 	 5.489891 	 -3.522444 	 1.035035 
O 	 6.685394 	 -6.966767 	 0.781167 
O 	 6.816996 	 -3.772080 	 3.285688 
O 	 1.330829 	 1.870559 	 -0.950412 
O 	 5.510766 	 -5.149014 	 -1.259410 
O 	 6.019231 	 1.054432 	 -5.012965 
O 	 -1.692220 	 3.333275 	 5.909842 
O 	 -5.649958 	 -4.266773 	 0.614753 
O 	 6.339105 	 2.453135 	 -2.866840 
O 	 2.664483 	 7.044500 	 -1.794431 
O 	 6.212934 	 -5.201428 	 -4.773209 
O 	 2.252098 	 -3.365483 	 -1.707714 
O 	 -1.299170 	 -3.602339 	 5.619558 
O 	 0.042377 	 -4.765868 	 -5.767343 
O 	 -0.853360 	 1.357265 	 -7.180393 
O 	 -1.992643 	 6.566562 	 -3.748994 
O 	 0.197725 	 0.468978 	 -4.569129 
O 	 -1.521587 	 -5.127613 	 -0.897584 
O 	 2.292812 	 -0.318582 	 0.997387 
O 	 -5.041457 	 5.884173 	 -4.492333 
O 	 6.148636 	 6.932949 	 -3.372672 
O 	 4.999728 	 -1.524937 	 7.188551 
O 	 0.799939 	 4.599188 	 1.059107 
O 	 -0.685564 	 -1.180512 	 4.428692 
K 	 -5.739430 	 1.461595 	 6.054831 
