333
conformation = 15
H 	 -6.036393 	 4.045149 	 0.804569 
H 	 -5.678946 	 5.356108 	 1.409391 
H 	 5.358622 	 1.324128 	 6.048885 
H 	 6.496448 	 0.363344 	 5.407226 
H 	 -3.818639 	 4.219167 	 -6.627659 
H 	 -4.238264 	 5.037812 	 7.056827 
H 	 6.411994 	 5.027897 	 -0.800107 
H 	 -6.961739 	 5.160346 	 -0.850716 
H 	 -5.009378 	 2.602595 	 -3.798924 
H 	 -5.537794 	 2.918532 	 -5.158770 
H 	 -7.441280 	 2.129017 	 -5.986309 
H 	 -6.926406 	 3.558285 	 -6.434859 
H 	 -1.630362 	 0.441933 	 -0.806746 
H 	 -2.118795 	 1.869183 	 -1.128780 
H 	 -5.443899 	 -3.601245 	 -5.851642 
H 	 -4.018904 	 -3.180861 	 -6.337196 
H 	 -1.901700 	 2.278467 	 2.929495 
H 	 -2.427515 	 2.990625 	 4.251179 
H 	 -3.930938 	 -5.508343 	 -6.266274 
H 	 -2.663184 	 -6.335373 	 -5.985099 
H 	 4.267974 	 5.021087 	 0.376106 
H 	 3.983827 	 6.252495 	 -0.531169 
H 	 -1.420861 	 -3.579357 	 -5.918900 
H 	 -2.083341 	 -2.315727 	 -6.710761 
H 	 3.218005 	 -5.459466 	 -6.740404 
H 	 3.105813 	 -4.938332 	 -5.247611 
H 	 -7.341642 	 -3.996230 	 -4.331566 
H 	 -6.310686 	 -2.891671 	 -3.626345 
H 	 2.189146 	 4.993027 	 4.299935 
H 	 1.088737 	 5.954975 	 4.614798 
H 	 7.261755 	 5.742193 	 -6.383030 
H 	 -6.345699 	 5.610243 	 -5.625594 
H 	 4.157839 	 3.051638 	 7.241382 
H 	 3.282618 	 1.832757 	 7.136792 
H 	 -3.576777 	 -0.695763 	 5.120939 
H 	 -4.747085 	 -1.442575 	 4.646790 
H 	 -0.934082 	 -0.888147 	 0.917256 
H 	 -2.264217 	 -1.725920 	 1.324988 
H 	 0.941401 	 -2.074066 	 3.293397 
H 	 2.076265 	 -1.608571 	 2.285291 
H 	 -1.281260 	 -7.575909 	 1.193065 
H 	 -0.943711 	 -6.925009 	 2.587199 
H 	 2.359202 	 -4.295110 	 3.031535 
H 	 2.572014 	 -5.825161 	 2.789032 
H 	 -6.157479 	 1.577507 	 0.945111 
H 	 -7.445088 	 1.964286 	 0.289245 
H 	 -4.530027 	 5.848022 	 -2.316798 
H 	 -4.609763 	 5.726731 	 -0.754624 
H 	 2.684777 	 1.043235 	 -3.856373 
H 	 2.277928 	 1.178206 	 -2.409381 
H 	 2.145631 	 4.795271 	 -6.704254 
H 	 1.051049 	 5.823206 	 -7.312873 
H 	 -0.133894 	 -6.700650 	 6.477359 
H 	 -0.993838 	 -7.580821 	 -7.403394 
H 	 2.261991 	 6.855080 	 2.076701 
H 	 0.869195 	 -7.542564 	 1.505946 
H 	 -6.334262 	 -6.384839 	 4.260029 
H 	 -6.401167 	 -5.972575 	 5.794705 
H 	 -6.109399 	 -0.786778 	 2.044509 
H 	 -6.481624 	 -0.251596 	 3.420286 
H 	 5.208820 	 5.398420 	 7.308945 
H 	 6.014436 	 4.486131 	 6.505027 
H 	 -6.559312 	 -1.395702 	 -5.513899 
H 	 -7.301318 	 -0.037798 	 -5.343593 
H 	 6.959877 	 3.994503 	 3.593664 
H 	 6.637272 	 3.037116 	 2.449347 
H 	 -5.680571 	 -4.084879 	 5.141188 
H 	 -5.167333 	 -3.339965 	 6.480588 
H 	 -4.581621 	 1.039901 	 -1.789797 
H 	 -6.073133 	 1.365716 	 -1.746588 
H 	 5.396291 	 0.801983 	 -0.057509 
H 	 4.743568 	 2.249516 	 -0.032444 
H 	 -3.982630 	 0.449226 	 2.260837 
H 	 -3.658632 	 0.845623 	 0.702584 
H 	 1.421797 	 1.833377 	 2.936363 
H 	 2.726583 	 1.159455 	 3.024362 
H 	 1.524128 	 -1.534899 	 -5.162483 
H 	 1.597303 	 -1.845773 	 -6.668980 
H 	 5.945312 	 -2.939071 	 6.423111 
H 	 5.013281 	 -4.197119 	 6.343626 
H 	 0.558189 	 -6.266066 	 4.434440 
H 	 1.813240 	 -6.614864 	 5.328279 
H 	 5.344815 	 -0.807719 	 -4.370419 
H 	 6.001487 	 -2.165306 	 -4.158024 
H 	 -3.501684 	 -5.336615 	 -3.981242 
H 	 -3.104894 	 -6.240465 	 -2.931905 
H 	 -6.841416 	 5.273553 	 6.303113 
H 	 -7.369675 	 5.516656 	 4.857338 
H 	 1.478353 	 -3.952714 	 -7.016500 
H 	 0.618269 	 -3.501397 	 6.708047 
H 	 3.566399 	 3.063584 	 1.913040 
H 	 2.429806 	 3.721894 	 0.919266 
H 	 -4.868574 	 -7.537983 	 5.778763 
H 	 -3.649383 	 6.729134 	 4.981641 
H 	 -2.302209 	 -5.973917 	 6.563684 
H 	 -3.603945 	 -5.942162 	 5.858005 
H 	 1.405155 	 -0.269420 	 0.745800 
H 	 0.038252 	 -0.662148 	 -0.798696 
H 	 -3.940299 	 -3.563748 	 0.181474 
H 	 -3.934947 	 -2.251104 	 -0.695366 
H 	 -1.603044 	 4.330160 	 -1.844396 
H 	 -3.088739 	 4.232811 	 -1.476779 
H 	 4.136271 	 -6.762788 	 5.370509 
H 	 3.368808 	 -5.377825 	 5.008399 
H 	 5.393443 	 -1.504652 	 1.270908 
H 	 6.641719 	 -0.971445 	 1.916211 
H 	 3.948304 	 -4.536460 	 0.569280 
H 	 2.673401 	 -5.619345 	 0.724957 
H 	 1.950738 	 0.104138 	 5.928949 
H 	 1.892072 	 1.520298 	 5.104800 
H 	 6.185859 	 -7.351155 	 -6.245986 
H 	 4.890885 	 6.818312 	 -5.680282 
H 	 -5.705232 	 3.131502 	 3.129576 
H 	 -4.232878 	 2.447991 	 3.498014 
H 	 4.058686 	 5.704764 	 2.903752 
H 	 4.461059 	 6.854703 	 1.926407 
H 	 3.549341 	 3.417029 	 4.180239 
H 	 4.266704 	 4.466796 	 5.171214 
H 	 2.823159 	 -1.700164 	 4.577238 
H 	 2.307622 	 -2.332659 	 5.880431 
H 	 0.004463 	 -5.531369 	 -2.667196 
H 	 0.411120 	 -6.974775 	 -3.290710 
H 	 3.700544 	 -2.968037 	 -4.236916 
H 	 2.814682 	 -3.648632 	 -3.279405 
H 	 -7.388428 	 6.786119 	 2.924394 
H 	 6.156792 	 7.107395 	 3.746507 
H 	 -0.861040 	 -4.710820 	 4.196758 
H 	 -0.357623 	 -4.774531 	 2.761648 
H 	 -1.647871 	 6.206971 	 3.511495 
H 	 -1.561733 	 5.159368 	 4.693798 
H 	 -0.594432 	 -2.061703 	 -3.151645 
H 	 0.930684 	 -2.092660 	 -2.660019 
H 	 1.155729 	 6.223290 	 -2.322430 
H 	 0.536012 	 5.225490 	 -3.357764 
H 	 -4.119778 	 -2.059089 	 -3.096816 
H 	 -5.394598 	 -1.042620 	 -3.086954 
H 	 -5.322493 	 6.690052 	 3.583661 
H 	 -4.416570 	 5.506684 	 3.150847 
H 	 -0.848022 	 1.385494 	 1.183613 
H 	 -0.233970 	 2.853734 	 1.363903 
H 	 -2.322516 	 6.793982 	 -0.875930 
H 	 -1.672851 	 -6.669368 	 -0.625613 
H 	 7.241721 	 -5.267993 	 7.371995 
H 	 -6.326362 	 -5.487004 	 -6.901261 
H 	 -2.096892 	 -0.117160 	 6.979742 
H 	 -3.381577 	 -0.469467 	 -7.295577 
H 	 3.819470 	 3.117619 	 -5.564456 
H 	 3.535940 	 3.663637 	 -4.042813 
H 	 -1.549785 	 0.701927 	 -4.257132 
H 	 -2.728017 	 0.943346 	 -3.256784 
H 	 -1.459524 	 3.214761 	 -4.409759 
H 	 -2.746890 	 2.915621 	 -5.081193 
H 	 4.950356 	 -1.490939 	 -1.303023 
H 	 3.971269 	 -0.412638 	 -1.910637 
H 	 5.238452 	 0.801788 	 2.478592 
H 	 5.409173 	 1.564302 	 3.891148 
H 	 -5.338128 	 -5.772614 	 -2.330976 
H 	 -5.809061 	 -6.644376 	 -1.217646 
H 	 0.924701 	 3.025062 	 -2.494706 
H 	 0.986394 	 2.291315 	 -3.833668 
H 	 -0.768752 	 -2.821189 	 1.510482 
H 	 0.566830 	 -3.579511 	 1.107840 
H 	 -6.711342 	 -1.606320 	 5.795161 
H 	 7.218094 	 -0.990375 	 6.913436 
H 	 -2.422108 	 -2.664027 	 -4.233735 
H 	 -2.495352 	 -3.430068 	 -2.908991 
H 	 -1.479748 	 4.794408 	 7.445124 
H 	 -1.104655 	 5.224797 	 -5.979485 
H 	 -5.013218 	 0.058173 	 -6.279621 
H 	 -3.716705 	 0.484241 	 -5.529334 
H 	 -7.089899 	 -2.237476 	 -1.221766 
H 	 6.944549 	 -3.412110 	 -1.700383 
H 	 3.159797 	 -7.335058 	 -5.175472 
H 	 2.977006 	 6.034587 	 -5.188979 
H 	 6.071677 	 -3.482298 	 1.603281 
H 	 6.049587 	 -3.292841 	 0.081102 
H 	 6.403172 	 -6.583177 	 0.162112 
H 	 6.586727 	 6.901696 	 0.805093 
H 	 -7.243752 	 -2.868377 	 3.242974 
H 	 6.750791 	 -3.564607 	 4.218592 
H 	 2.179508 	 2.168952 	 -0.270335 
H 	 0.762121 	 1.490342 	 -0.372343 
H 	 4.752760 	 -5.626054 	 -1.168893 
H 	 5.983638 	 -5.602863 	 -2.208643 
H 	 5.238236 	 1.401134 	 -5.670523 
H 	 6.016347 	 1.743729 	 -4.283889 
H 	 -1.403968 	 2.686550 	 6.308982 
H 	 -2.752552 	 3.502037 	 6.438758 
H 	 -5.503726 	 -4.867516 	 1.152398 
H 	 -5.942063 	 -4.540501 	 -0.286487 
H 	 6.182678 	 2.291541 	 -1.922840 
H 	 6.741598 	 3.412171 	 -2.865492 
H 	 3.389842 	 -7.408770 	 -2.408843 
H 	 2.584508 	 -6.973315 	 -1.212910 
H 	 6.395706 	 -6.030947 	 -4.470790 
H 	 5.308000 	 -5.254699 	 -5.189682 
H 	 2.997786 	 -2.416036 	 -1.452832 
H 	 2.371579 	 -3.845561 	 -1.054731 
H 	 -2.032763 	 -3.808880 	 5.974260 
H 	 -1.211283 	 -2.565393 	 5.338198 
H 	 -0.245957 	 -5.408270 	 -6.389765 
H 	 0.274010 	 -5.079764 	 -4.969224 
H 	 -0.702583 	 1.497155 	 -6.318197 
H 	 0.242351 	 1.358464 	 7.372731 
H 	 -1.236601 	 6.430998 	 -3.353387 
H 	 -1.503551 	 6.560450 	 -4.855702 
H 	 0.440386 	 0.011218 	 -3.916003 
H 	 0.748860 	 0.291164 	 -5.461248 
H 	 -2.200329 	 -4.326404 	 -1.159859 
H 	 -1.034652 	 -4.362557 	 -0.137934 
H 	 3.032124 	 -0.428625 	 0.626496 
H 	 -1.001798 	 -0.932534 	 3.489345 
H 	 -4.140963 	 6.400942 	 -4.696658 
H 	 -4.913143 	 5.030294 	 -4.434234 
H 	 6.814940 	 6.808199 	 -2.850188 
H 	 5.611043 	 6.449178 	 -3.843050 
H 	 5.076188 	 -1.601617 	 -6.768307 
H 	 4.263929 	 -1.394885 	 6.800333 
H 	 0.835185 	 5.182053 	 1.911784 
H 	 0.657985 	 5.337240 	 0.430505 
H 	 -0.051597 	 -0.346024 	 4.650482 
O 	 -5.774415 	 4.934629 	 0.502679 
O 	 6.026061 	 1.222105 	 5.313137 
O 	 -4.086650 	 4.095249 	 7.342756 
O 	 7.159569 	 5.017310 	 -1.404667 
O 	 -4.822162 	 3.195391 	 -4.562342 
O 	 -6.805695 	 2.570286 	 -6.547965 
O 	 -2.456245 	 0.945471 	 -1.082499 
O 	 -4.808964 	 -3.666138 	 -6.611990 
O 	 -2.580786 	 2.272049 	 3.651911 
O 	 -3.526654 	 -6.143741 	 -5.617135 
O 	 4.705313 	 5.763311 	 -0.076342 
O 	 -2.137436 	 -2.895676 	 -5.920491 
O 	 3.463403 	 -5.682698 	 -5.843326 
O 	 -6.731458 	 -3.210700 	 -4.446454 
O 	 1.240868 	 5.128381 	 4.126236 
O 	 -6.820754 	 5.251224 	 -6.399738 
O 	 4.015999 	 2.223302 	 -7.199201 
O 	 -4.281227 	 -0.608353 	 4.456360 
O 	 -1.448916 	 -1.457217 	 1.726322 
O 	 1.838278 	 -2.324953 	 2.970033 
O 	 -0.904853 	 7.108090 	 2.091530 
O 	 3.017704 	 -5.028670 	 2.985644 
O 	 -6.478824 	 1.989724 	 0.167331 
O 	 -4.137314 	 6.144903 	 -1.486152 
O 	 2.963038 	 0.807880 	 -2.949263 
O 	 1.963291 	 5.747828 	 -6.975082 
O 	 -0.768909 	 -6.603393 	 7.284605 
O 	 1.852849 	 -7.517402 	 1.333132 
O 	 -5.779825 	 -6.126591 	 5.026601 
O 	 -6.734051 	 -0.941180 	 2.801163 
O 	 5.081073 	 4.581413 	 6.837528 
O 	 -6.362781 	 -0.459230 	 -5.339552 
O 	 7.230387 	 3.795479 	 2.673561 
O 	 -5.467354 	 -3.215963 	 5.532002 
O 	 -5.341836 	 1.162732 	 -2.423902 
O 	 5.558192 	 1.730128 	 -0.262240 
O 	 -4.339228 	 0.495209 	 1.340261 
O 	 2.202881 	 1.812309 	 3.511628 
O 	 1.982521 	 -1.209511 	 -6.015238 
O 	 5.948823 	 -3.937606 	 6.362745 
O 	 0.896071 	 -6.925464 	 5.058269 
O 	 5.172207 	 -1.725797 	 -4.509223 
O 	 -3.493273 	 -5.350878 	 -2.989297 
O 	 -7.264538 	 4.841927 	 5.553304 
O 	 1.534930 	 -3.423578 	 7.022690 
O 	 3.255408 	 3.221833 	 0.999457 
O 	 -4.024543 	 6.855297 	 5.926392 
O 	 -2.996957 	 -5.309324 	 6.241833 
O 	 -0.128770 	 -0.176863 	 0.029821 
O 	 -3.320595 	 -2.804763 	 -0.167128 
O 	 -2.312274 	 3.669455 	 -1.735455 
O 	 3.704710 	 -5.972374 	 5.723397 
O 	 5.876181 	 -0.667479 	 1.361985 
O 	 3.208859 	 -5.069888 	 0.094716 
O 	 1.756995 	 1.082877 	 6.055649 
O 	 5.614375 	 6.794730 	 -6.416791 
O 	 -5.188602 	 2.555602 	 3.725734 
O 	 4.093124 	 6.699115 	 2.840130 
O 	 3.964790 	 4.305490 	 4.219573 
O 	 2.829611 	 -1.533669 	 5.528927 
O 	 0.510466 	 -6.005601 	 -3.387243 
O 	 3.052646 	 -3.659476 	 -4.259180 
O 	 7.149570 	 7.138342 	 3.736172 
O 	 -0.620703 	 -5.373589 	 3.489091 
O 	 -2.176706 	 5.684299 	 4.153278 
O 	 0.183107 	 -1.461184 	 -2.911218 
O 	 0.321604 	 5.812130 	 -2.622684 
O 	 -5.058690 	 -1.932780 	 -2.841453 
O 	 -5.001611 	 6.198256 	 2.782341 
O 	 -0.580260 	 2.055225 	 1.875672 
O 	 -1.551947 	 7.268384 	 -0.551554 
O 	 -6.982559 	 -5.974424 	 7.396891 
O 	 -2.743788 	 -0.884875 	 6.991394 
O 	 3.816572 	 3.921322 	 -4.975033 
O 	 -2.523948 	 0.907118 	 -4.215135 
O 	 -2.032231 	 3.577404 	 -5.116571 
O 	 4.090301 	 -1.115185 	 -1.199644 
O 	 5.167075 	 1.680292 	 2.903977 
O 	 -6.116829 	 -5.808691 	 -1.700367 
O 	 0.970478 	 3.202988 	 -3.465309 
O 	 -0.391670 	 -3.763082 	 1.228081 
O 	 -7.220930 	 -0.799083 	 6.064243 
O 	 -2.331498 	 -2.552068 	 -3.278439 
O 	 -1.290368 	 5.607173 	 -6.865608 
O 	 -4.226841 	 0.641306 	 -6.356699 
O 	 6.890428 	 -2.440881 	 -1.523225 
O 	 3.473896 	 6.763767 	 -4.752349 
O 	 5.439699 	 -3.444550 	 0.844421 
O 	 6.942598 	 -7.089882 	 0.835110 
O 	 7.033999 	 -3.622948 	 3.298434 
O 	 1.382274 	 2.066913 	 -0.881544 
O 	 5.697967 	 -5.344579 	 -1.331592 
O 	 5.990442 	 1.123194 	 -5.118246 
O 	 -1.852244 	 3.555618 	 6.045634 
O 	 -5.548709 	 -4.138574 	 0.533122 
O 	 6.539577 	 2.451481 	 -2.846021 
O 	 2.939070 	 7.105318 	 -1.639333 
O 	 6.243359 	 -5.164106 	 -4.861374 
O 	 2.314172 	 -3.113641 	 -1.691165 
O 	 -1.147921 	 -3.447066 	 5.640523 
O 	 -0.021560 	 -4.653776 	 -5.796192 
O 	 -0.711041 	 1.421098 	 -7.293735 
O 	 -1.903270 	 6.705896 	 -4.002423 
O 	 0.343831 	 0.703323 	 -4.664708 
O 	 -1.583198 	 -4.918186 	 -0.781079 
O 	 2.278526 	 -0.293700 	 1.244434 
O 	 -5.021607 	 6.003996 	 -4.482302 
O 	 6.226539 	 7.153293 	 -3.536353 
O 	 5.116001 	 -1.442050 	 7.195481 
O 	 0.804288 	 4.650973 	 1.135588 
O 	 -0.428266 	 -1.159859 	 4.250520 
K 	 -5.598656 	 1.596452 	 6.037834 
