333
conformation = 66
H 	 -5.926289 	 3.906548 	 0.478061 
H 	 -5.593105 	 5.210721 	 1.357469 
H 	 5.465265 	 1.130307 	 6.225590 
H 	 6.489318 	 0.300758 	 5.400029 
H 	 -4.354161 	 3.923828 	 -7.003322 
H 	 -4.219603 	 5.040386 	 6.814661 
H 	 6.014420 	 4.887613 	 -1.217349 
H 	 -7.397961 	 4.782428 	 -0.809780 
H 	 -5.103432 	 2.562201 	 -3.741338 
H 	 -5.702628 	 3.005154 	 -5.156853 
H 	 -7.591064 	 2.149811 	 -5.998354 
H 	 -7.119372 	 3.483214 	 -6.443485 
H 	 -1.662536 	 0.432523 	 -0.759451 
H 	 -2.639042 	 1.664927 	 -1.085882 
H 	 -5.452257 	 -3.330516 	 -6.001282 
H 	 -3.930578 	 -3.503232 	 -6.473593 
H 	 -1.983013 	 1.948869 	 3.008460 
H 	 -2.145036 	 2.264838 	 4.480276 
H 	 -4.208296 	 -5.396720 	 -6.123396 
H 	 -2.873112 	 -6.173676 	 -6.300095 
H 	 4.184388 	 4.534099 	 0.153961 
H 	 3.915920 	 5.797621 	 -0.696158 
H 	 -1.420632 	 -3.590117 	 -6.189538 
H 	 -2.251204 	 -2.338618 	 -6.750598 
H 	 3.172150 	 -5.711506 	 -6.834924 
H 	 3.051433 	 -5.042864 	 -5.357225 
H 	 -7.168290 	 -3.948469 	 -4.701002 
H 	 -6.318440 	 -2.880444 	 -3.739696 
H 	 1.922992 	 4.921184 	 4.149858 
H 	 0.965856 	 6.146926 	 4.020463 
H 	 7.084333 	 5.646642 	 -6.039604 
H 	 -6.252959 	 5.507057 	 -5.701076 
H 	 4.539479 	 2.784231 	 7.380181 
H 	 3.156441 	 1.845054 	 7.257459 
H 	 -3.427408 	 -0.284667 	 4.767256 
H 	 -4.431808 	 -1.507016 	 4.692096 
H 	 -0.979799 	 -1.077760 	 1.215823 
H 	 -2.418423 	 -1.619205 	 1.466291 
H 	 1.210857 	 -1.965873 	 3.379598 
H 	 2.416599 	 -1.728485 	 2.393081 
H 	 -1.420473 	 6.933129 	 1.347650 
H 	 -1.524184 	 -7.300902 	 2.800089 
H 	 2.668726 	 -4.186372 	 3.246201 
H 	 2.237401 	 -5.559015 	 2.776745 
H 	 -5.945698 	 1.228177 	 0.792114 
H 	 -7.390547 	 1.946410 	 0.283915 
H 	 -4.636348 	 6.450496 	 -1.987942 
H 	 -4.841396 	 5.595418 	 -0.687480 
H 	 2.310404 	 0.179939 	 -3.640113 
H 	 2.627497 	 1.055450 	 -2.413634 
H 	 1.832040 	 4.784523 	 -6.390910 
H 	 0.805713 	 5.731855 	 -6.951515 
H 	 -0.146703 	 -6.985291 	 6.560103 
H 	 -1.001527 	 -7.513401 	 -7.281350 
H 	 2.331751 	 6.733341 	 1.782688 
H 	 0.906677 	 7.104035 	 1.937039 
H 	 -6.709008 	 -6.806587 	 4.512558 
H 	 -6.250990 	 -6.318314 	 5.955470 
H 	 -6.025001 	 -1.066877 	 1.903895 
H 	 -6.516611 	 -0.500009 	 3.303979 
H 	 5.138742 	 5.281901 	 7.362953 
H 	 6.093162 	 4.524637 	 6.375816 
H 	 -6.812698 	 -1.372908 	 -5.001368 
H 	 -7.180892 	 0.115636 	 -5.179942 
H 	 7.020974 	 3.741705 	 3.625779 
H 	 6.194091 	 2.873662 	 2.708929 
H 	 -5.967743 	 -4.169514 	 5.006154 
H 	 -5.310934 	 -3.563064 	 6.338489 
H 	 -4.306064 	 0.972255 	 -2.001831 
H 	 -5.661179 	 1.587056 	 -1.750787 
H 	 5.467089 	 0.769586 	 0.265318 
H 	 4.898168 	 2.266946 	 0.268808 
H 	 -3.821305 	 0.423746 	 2.076965 
H 	 -3.767734 	 0.257500 	 0.580727 
H 	 1.399747 	 2.277577 	 3.114598 
H 	 2.317219 	 1.113282 	 2.652891 
H 	 2.368886 	 -2.001287 	 -5.620180 
H 	 1.556768 	 -1.553369 	 -6.843331 
H 	 5.289073 	 -3.722607 	 6.970502 
H 	 5.174414 	 -5.029824 	 6.276901 
H 	 0.595407 	 -6.650052 	 4.505273 
H 	 1.924091 	 -6.636364 	 5.437599 
H 	 5.318012 	 -1.065201 	 -4.698295 
H 	 6.177130 	 -2.411495 	 -4.522348 
H 	 -3.709559 	 -6.165404 	 -3.846203 
H 	 -2.821066 	 -6.113724 	 -2.465988 
H 	 -6.892742 	 5.044827 	 6.618759 
H 	 -6.978956 	 5.735058 	 5.263079 
H 	 0.903214 	 -3.896184 	 -7.251638 
H 	 0.394614 	 -3.522101 	 6.257035 
H 	 3.364925 	 2.519949 	 1.644499 
H 	 2.482587 	 3.689608 	 1.204783 
H 	 -4.586368 	 7.071862 	 5.341448 
H 	 -3.217189 	 6.465657 	 5.836812 
H 	 -2.481399 	 -6.074730 	 6.584766 
H 	 -3.737809 	 -5.576981 	 5.765091 
H 	 1.403723 	 -0.365090 	 0.626508 
H 	 -0.082057 	 -0.956716 	 -0.618070 
H 	 -4.147788 	 -2.806871 	 0.308095 
H 	 -3.336835 	 -2.222555 	 -0.853831 
H 	 -1.549902 	 4.096515 	 -1.677069 
H 	 -3.041332 	 4.478679 	 -1.725497 
H 	 4.337104 	 -6.737008 	 5.803693 
H 	 3.640618 	 -5.948975 	 4.630942 
H 	 5.493652 	 -1.829151 	 1.200169 
H 	 6.517838 	 -0.639551 	 1.428663 
H 	 3.878025 	 -4.766303 	 0.739971 
H 	 3.022650 	 -5.970054 	 0.549251 
H 	 2.317969 	 0.072143 	 6.082515 
H 	 1.757158 	 1.173659 	 5.305268 
H 	 5.860492 	 -7.379999 	 -6.855497 
H 	 5.077682 	 6.741022 	 -5.773650 
H 	 -5.976321 	 2.914815 	 2.989846 
H 	 -4.478633 	 2.780219 	 3.444254 
H 	 3.937211 	 5.802906 	 3.397020 
H 	 4.336512 	 6.293697 	 2.047006 
H 	 4.376149 	 3.503637 	 3.784543 
H 	 4.288125 	 4.359557 	 5.075826 
H 	 2.836059 	 -1.873444 	 4.610619 
H 	 2.443382 	 -2.231632 	 6.056937 
H 	 0.101841 	 -5.341415 	 -2.572525 
H 	 -0.099031 	 -6.689367 	 -3.445025 
H 	 3.900377 	 -3.291400 	 -4.299798 
H 	 2.677306 	 -3.782083 	 -3.377923 
H 	 7.040501 	 -7.554528 	 2.945113 
H 	 6.027234 	 7.013585 	 4.084770 
H 	 -0.824330 	 -4.626059 	 4.285460 
H 	 -0.607266 	 -4.702079 	 2.749443 
H 	 -1.727496 	 5.946488 	 3.715708 
H 	 -1.698815 	 4.646842 	 4.574995 
H 	 -0.692618 	 -2.003639 	 -2.895728 
H 	 0.755072 	 -2.268604 	 -2.323932 
H 	 0.880893 	 6.103588 	 -2.062886 
H 	 0.792934 	 4.802621 	 -2.947222 
H 	 -4.351387 	 -1.955120 	 -3.168692 
H 	 -5.337975 	 -0.806616 	 -2.985389 
H 	 -5.481813 	 6.549355 	 3.563419 
H 	 -4.103508 	 5.841832 	 3.299005 
H 	 -0.140907 	 1.235988 	 1.200144 
H 	 -0.239943 	 2.825956 	 1.379177 
H 	 -2.403404 	 6.840315 	 -0.886463 
H 	 -1.576061 	 -6.789356 	 -0.516708 
H 	 -7.679656 	 -5.253234 	 7.076412 
H 	 -6.697590 	 -5.800864 	 -6.722373 
H 	 -1.774282 	 -0.441726 	 7.124087 
H 	 -3.222163 	 -0.542250 	 -7.275287 
H 	 3.557420 	 3.264077 	 -5.624138 
H 	 2.952299 	 3.517275 	 -4.291082 
H 	 -1.697964 	 0.744664 	 -4.540534 
H 	 -2.355197 	 0.803035 	 -3.219571 
H 	 -1.714803 	 3.829288 	 -4.294566 
H 	 -3.024097 	 3.393663 	 -4.787857 
H 	 5.014367 	 -1.532556 	 -1.487567 
H 	 3.899294 	 -0.595818 	 -2.054836 
H 	 5.410584 	 0.832133 	 2.567544 
H 	 5.176275 	 1.511578 	 3.901036 
H 	 -5.396680 	 -5.891037 	 -1.924437 
H 	 -6.673618 	 -6.673184 	 -1.204206 
H 	 0.999817 	 2.527358 	 -2.828885 
H 	 0.496845 	 2.666818 	 -4.223826 
H 	 -0.729896 	 -2.970253 	 1.436152 
H 	 0.694437 	 -3.555619 	 1.405254 
H 	 -6.586399 	 -1.874689 	 5.702925 
H 	 6.898310 	 -1.431856 	 6.258127 
H 	 -2.374360 	 -2.560196 	 -4.397972 
H 	 -2.464411 	 -3.664476 	 -3.366201 
H 	 -1.255758 	 5.203680 	 7.101563 
H 	 -1.849186 	 4.664965 	 -6.532711 
H 	 -4.693857 	 0.030463 	 -5.787759 
H 	 -3.651028 	 1.078428 	 -5.679471 
H 	 -7.166393 	 -2.302343 	 -1.972046 
H 	 6.630321 	 -3.308746 	 -1.755014 
H 	 3.363658 	 -7.164070 	 -5.063977 
H 	 3.071245 	 6.073386 	 -4.932830 
H 	 6.070787 	 -3.754724 	 1.886387 
H 	 6.251366 	 -3.657335 	 0.393653 
H 	 6.462056 	 -6.080838 	 0.437781 
H 	 6.588562 	 -7.577223 	 0.062212 
H 	 7.141475 	 -2.836177 	 3.332286 
H 	 6.422330 	 -3.870913 	 4.206323 
H 	 1.885072 	 2.079175 	 -0.159750 
H 	 0.775945 	 1.096668 	 -0.755706 
H 	 4.622822 	 -5.080332 	 -0.960315 
H 	 5.563626 	 -5.984757 	 -1.712613 
H 	 5.246636 	 1.202470 	 -5.512193 
H 	 6.126741 	 1.713067 	 -4.264967 
H 	 -1.217549 	 2.642810 	 6.474644 
H 	 -2.529865 	 3.382428 	 6.162658 
H 	 -5.897027 	 -4.789409 	 1.376002 
H 	 -5.774462 	 -4.906870 	 -0.102835 
H 	 6.062442 	 1.937388 	 -2.127638 
H 	 6.744967 	 3.218031 	 -2.310248 
H 	 2.635546 	 6.858003 	 -2.762279 
H 	 2.757785 	 -6.914774 	 -1.719160 
H 	 6.399199 	 -6.112120 	 -4.394265 
H 	 5.412261 	 -5.188811 	 -5.245626 
H 	 2.979392 	 -2.711679 	 -1.469799 
H 	 2.334809 	 -4.087579 	 -1.021832 
H 	 -1.987420 	 -3.991879 	 6.108267 
H 	 -1.543578 	 -2.678713 	 5.345918 
H 	 -0.186316 	 -5.597765 	 -6.222171 
H 	 0.322728 	 -4.958487 	 -4.813319 
H 	 -0.787502 	 1.926025 	 -6.376049 
H 	 0.105156 	 1.220226 	 7.442987 
H 	 -1.137594 	 6.147421 	 -3.329621 
H 	 -1.694659 	 6.576868 	 -4.674656 
H 	 0.208550 	 -0.183865 	 -3.820479 
H 	 0.774504 	 -0.072108 	 -5.192737 
H 	 -2.222563 	 -4.556980 	 -0.686516 
H 	 -0.814528 	 -4.787999 	 -0.257736 
H 	 2.883474 	 -0.732963 	 0.243436 
H 	 -1.070402 	 -1.281810 	 3.527259 
H 	 -4.090886 	 6.303110 	 -4.540218 
H 	 -4.802725 	 4.916058 	 -4.332437 
H 	 6.551564 	 6.052955 	 -3.038143 
H 	 5.222773 	 6.727686 	 -3.605799 
H 	 4.374467 	 -1.277468 	 -7.067714 
H 	 4.461469 	 -1.461337 	 6.328203 
H 	 0.891783 	 4.857045 	 2.054992 
H 	 1.037941 	 5.495237 	 0.690664 
H 	 -0.806188 	 -0.196635 	 4.620689 
O 	 -5.833994 	 4.887896 	 0.471522 
O 	 6.078618 	 1.217759 	 5.486966 
O 	 -4.027813 	 4.095381 	 6.978655 
O 	 6.917229 	 4.863852 	 -1.626758 
O 	 -4.970267 	 3.200933 	 -4.495240 
O 	 -6.870495 	 2.532940 	 -6.560654 
O 	 -2.648980 	 0.673691 	 -1.000776 
O 	 -4.866909 	 -3.869405 	 -6.577305 
O 	 -2.699977 	 2.137839 	 3.628238 
O 	 -3.646421 	 -6.103521 	 -5.749997 
O 	 4.580494 	 5.441163 	 -0.033583 
O 	 -2.198178 	 -3.003287 	 -6.025197 
O 	 3.555114 	 -5.728666 	 -5.930452 
O 	 -6.751645 	 -3.049904 	 -4.607592 
O 	 1.012992 	 5.202150 	 3.833021 
O 	 -6.943635 	 5.311321 	 -6.399952 
O 	 3.997751 	 2.033636 	 -7.123403 
O 	 -4.232114 	 -0.615165 	 4.363091 
O 	 -1.532966 	 -1.575250 	 1.917383 
O 	 2.042379 	 -2.405033 	 3.053192 
O 	 -1.118633 	 6.890309 	 2.282392 
O 	 2.955197 	 -5.117248 	 3.248614 
O 	 -6.425334 	 1.927189 	 0.215851 
O 	 -4.136463 	 5.942309 	 -1.342958 
O 	 3.074503 	 0.666579 	 -3.218506 
O 	 1.779576 	 5.573621 	 -7.007982 
O 	 -0.780237 	 -6.666152 	 7.234893 
O 	 1.664648 	 -7.627447 	 1.330524 
O 	 -5.931969 	 -6.378319 	 4.975658 
O 	 -6.805087 	 -0.959714 	 2.511684 
O 	 5.186941 	 4.476149 	 6.768660 
O 	 -6.480471 	 -0.517364 	 -5.302129 
O 	 6.893821 	 3.569487 	 2.661564 
O 	 -5.649214 	 -3.327302 	 5.413592 
O 	 -5.171315 	 1.196831 	 -2.464162 
O 	 5.534937 	 1.684922 	 -0.239931 
O 	 -4.384359 	 0.427049 	 1.311387 
O 	 2.288500 	 1.891475 	 3.264284 
O 	 1.806101 	 -1.259370 	 -5.980888 
O 	 5.770355 	 -4.270112 	 6.328654 
O 	 1.107922 	 -7.142598 	 5.214667 
O 	 5.220400 	 -2.031730 	 -4.494371 
O 	 -3.576792 	 -5.731123 	 -2.974916 
O 	 -7.242139 	 4.910031 	 5.703370 
O 	 1.200263 	 -3.413215 	 6.877259 
O 	 3.225521 	 3.132177 	 0.832991 
O 	 -4.079795 	 6.781821 	 6.115910 
O 	 -2.985483 	 -5.319614 	 6.289785 
O 	 -0.257820 	 -0.252137 	 0.045136 
O 	 -3.287632 	 -2.868032 	 -0.103757 
O 	 -2.431153 	 3.724179 	 -1.862242 
O 	 3.717210 	 -6.060901 	 5.634786 
O 	 5.589522 	 -0.802187 	 1.321475 
O 	 3.261339 	 -5.161383 	 0.114381 
O 	 1.818013 	 0.899596 	 6.187723 
O 	 5.690676 	 6.604154 	 -6.498884 
O 	 -5.389561 	 2.654902 	 3.796503 
O 	 3.891462 	 6.617735 	 2.856927 
O 	 3.863716 	 4.241772 	 4.210776 
O 	 2.918870 	 -1.552997 	 5.572208 
O 	 0.522587 	 -5.958497 	 -3.224514 
O 	 2.962934 	 -3.655292 	 -4.293816 
O 	 6.977636 	 6.938270 	 3.843476 
O 	 -0.676501 	 -5.303500 	 3.547486 
O 	 -2.193642 	 5.438157 	 4.429603 
O 	 0.205963 	 -1.652632 	 -2.855086 
O 	 0.288416 	 5.622730 	 -2.673040 
O 	 -5.189207 	 -1.714984 	 -2.691267 
O 	 -4.962336 	 6.063541 	 2.911533 
O 	 -0.389211 	 1.952176 	 1.786696 
O 	 -1.515865 	 7.101040 	 -0.605697 
O 	 -7.171576 	 -6.057927 	 7.360098 
O 	 -2.564035 	 -1.026599 	 7.055001 
O 	 3.563284 	 3.946568 	 -4.947652 
O 	 -2.593686 	 0.865143 	 -4.143039 
O 	 -2.092307 	 3.412787 	 -5.108280 
O 	 4.047639 	 -1.289153 	 -1.386972 
O 	 5.066374 	 1.668176 	 2.914405 
O 	 -6.341280 	 -5.893005 	 -1.637967 
O 	 0.804458 	 3.180993 	 -3.485621 
O 	 -0.230316 	 -3.812154 	 1.242676 
O 	 -7.191465 	 -1.114469 	 5.762155 
O 	 -2.572696 	 -2.697400 	 -3.393344 
O 	 -1.298414 	 5.423716 	 -6.843674 
O 	 -4.188388 	 0.598669 	 -6.402872 
O 	 6.975540 	 -2.448014 	 -1.451816 
O 	 3.532741 	 6.866298 	 -4.541366 
O 	 5.531115 	 -3.523307 	 1.057744 
O 	 6.713248 	 -6.942806 	 0.767922 
O 	 6.844215 	 -3.783106 	 3.288914 
O 	 1.380268 	 1.855487 	 -0.977034 
O 	 5.558790 	 -5.134060 	 -1.270822 
O 	 6.070945 	 1.055055 	 -5.008313 
O 	 -1.627341 	 3.318175 	 5.918089 
O 	 -5.619434 	 -4.275329 	 0.620773 
O 	 6.367999 	 2.456685 	 -2.865867 
O 	 2.687947 	 7.044180 	 -1.819143 
O 	 6.267054 	 -5.199164 	 -4.757337 
O 	 2.297433 	 -3.380357 	 -1.709859 
O 	 -1.255246 	 -3.602888 	 5.615219 
O 	 0.098560 	 -4.765720 	 -5.776337 
O 	 -0.811798 	 1.361171 	 -7.185298 
O 	 -1.957591 	 6.575616 	 -3.728940 
O 	 0.233391 	 0.447115 	 -4.553007 
O 	 -1.459235 	 -5.134620 	 -0.909659 
O 	 2.349101 	 -0.313307 	 0.978330 
O 	 -4.988055 	 5.892783 	 -4.491351 
O 	 6.187776 	 6.926935 	 -3.350919 
O 	 5.041485 	 -1.523170 	 7.196398 
O 	 0.847333 	 4.576029 	 1.050269 
O 	 -0.655481 	 -1.167281 	 4.438877 
K 	 -5.701013 	 1.457702 	 6.063119 
