333
conformation = 10
H 	 -6.140878 	 4.006871 	 0.767654 
H 	 -5.588577 	 5.295407 	 1.362057 
H 	 5.374071 	 1.353455 	 5.981921 
H 	 6.396003 	 0.229372 	 5.456411 
H 	 -3.795896 	 4.232470 	 -6.584837 
H 	 -4.166825 	 4.975200 	 7.034355 
H 	 6.370914 	 4.977449 	 -0.832842 
H 	 -6.970884 	 5.126689 	 -0.743704 
H 	 -5.025918 	 2.539295 	 -3.803138 
H 	 -5.539335 	 2.916995 	 -5.209705 
H 	 -7.469566 	 2.152065 	 -5.918065 
H 	 -6.975387 	 3.497943 	 -6.450185 
H 	 -1.619295 	 0.455096 	 -0.906427 
H 	 -2.121733 	 1.860062 	 -1.171057 
H 	 -5.492216 	 -3.577151 	 -5.880657 
H 	 -3.937465 	 -3.255917 	 -6.369921 
H 	 -1.859057 	 2.243086 	 2.989009 
H 	 -2.305308 	 2.980985 	 4.287396 
H 	 -3.952303 	 -5.589958 	 -6.218255 
H 	 -2.635581 	 -6.452920 	 -5.965143 
H 	 4.269358 	 4.979782 	 0.370144 
H 	 3.953703 	 6.167690 	 -0.553239 
H 	 -1.482795 	 -3.665952 	 -5.905750 
H 	 -2.070208 	 -2.328012 	 -6.708688 
H 	 3.243015 	 -5.513789 	 -6.787477 
H 	 3.087939 	 -5.021441 	 -5.269168 
H 	 -7.331356 	 -4.072763 	 -4.437854 
H 	 -6.304093 	 -2.999048 	 -3.573508 
H 	 2.224389 	 4.953665 	 4.375894 
H 	 1.008811 	 5.914534 	 4.573996 
H 	 7.167914 	 5.639892 	 -6.340190 
H 	 -6.388067 	 5.546984 	 -5.581090 
H 	 4.234751 	 3.042920 	 7.217008 
H 	 3.255633 	 1.755380 	 7.146168 
H 	 -3.573019 	 -0.756196 	 5.136715 
H 	 -4.862210 	 -1.453856 	 4.618229 
H 	 -0.930285 	 -0.899316 	 0.965270 
H 	 -2.324185 	 -1.690494 	 1.211549 
H 	 0.937674 	 -2.070183 	 3.315565 
H 	 2.039579 	 -1.679793 	 2.352812 
H 	 -1.320050 	 -7.616635 	 1.173066 
H 	 -0.984470 	 -7.011498 	 2.622979 
H 	 2.372871 	 -4.370015 	 3.009643 
H 	 2.515114 	 -5.910341 	 2.736431 
H 	 -6.051773 	 1.526148 	 0.991551 
H 	 -7.461179 	 1.959612 	 0.262944 
H 	 -4.547241 	 5.859755 	 -2.359635 
H 	 -4.689627 	 5.639720 	 -0.798038 
H 	 2.702718 	 1.050013 	 -3.818359 
H 	 2.213411 	 1.160412 	 -2.372510 
H 	 2.174966 	 4.790879 	 -6.776087 
H 	 1.018004 	 5.724446 	 -7.228727 
H 	 -0.152106 	 -6.845155 	 6.510288 
H 	 -0.986652 	 -7.590924 	 -7.415255 
H 	 2.270101 	 6.812538 	 2.012207 
H 	 0.878412 	 7.231947 	 1.533846 
H 	 -6.314124 	 -6.440072 	 4.258810 
H 	 -6.386693 	 -6.010964 	 5.766117 
H 	 -6.162115 	 -0.833632 	 2.030239 
H 	 -6.477386 	 -0.309894 	 3.498212 
H 	 5.168420 	 5.413669 	 7.298289 
H 	 6.002368 	 4.360577 	 6.528365 
H 	 -6.539699 	 -1.455899 	 -5.524288 
H 	 -7.228255 	 -0.103419 	 -5.406411 
H 	 6.936950 	 3.965778 	 3.570646 
H 	 6.644142 	 3.036665 	 2.471810 
H 	 -5.549393 	 -4.151762 	 5.151824 
H 	 -5.115240 	 -3.334166 	 6.487029 
H 	 -4.642727 	 1.034082 	 -1.729791 
H 	 -6.066416 	 1.356517 	 -1.831073 
H 	 5.370861 	 0.682210 	 -0.039754 
H 	 4.761232 	 2.162741 	 0.047718 
H 	 -3.984011 	 0.505602 	 2.226476 
H 	 -3.645924 	 0.730770 	 0.756866 
H 	 1.375910 	 1.750777 	 2.947627 
H 	 2.806321 	 1.145934 	 3.040787 
H 	 1.530328 	 -1.568004 	 -5.213088 
H 	 1.631493 	 -1.902919 	 -6.638677 
H 	 5.866616 	 -2.995700 	 6.438303 
H 	 5.043167 	 -4.221966 	 6.370964 
H 	 0.445033 	 -6.383311 	 4.329686 
H 	 1.726626 	 -6.591384 	 5.353011 
H 	 5.322740 	 -0.753471 	 -4.378605 
H 	 6.001189 	 -2.171117 	 -4.180604 
H 	 -3.609586 	 -5.276849 	 -4.012248 
H 	 -3.064029 	 -6.269226 	 -2.892259 
H 	 -6.836540 	 5.204561 	 6.315008 
H 	 -7.357080 	 5.496959 	 4.868455 
H 	 1.482901 	 -4.037369 	 -7.082539 
H 	 0.612290 	 -3.603820 	 6.726901 
H 	 3.557336 	 2.995991 	 1.941705 
H 	 2.401475 	 3.719212 	 1.050380 
H 	 -4.876844 	 -7.620949 	 5.825436 
H 	 -3.608441 	 6.656664 	 5.042295 
H 	 -2.343636 	 -5.939897 	 6.653570 
H 	 -3.602786 	 -6.005492 	 5.774355 
H 	 1.409676 	 -0.302008 	 0.775681 
H 	 0.071076 	 -0.749846 	 -0.778453 
H 	 -3.906399 	 -3.500131 	 0.261675 
H 	 -4.029708 	 -2.313198 	 -0.625746 
H 	 -1.576436 	 4.253409 	 -1.840787 
H 	 -3.039300 	 4.134690 	 -1.384562 
H 	 4.179174 	 -6.737112 	 5.327734 
H 	 3.443781 	 -5.376140 	 5.042791 
H 	 5.398102 	 -1.598437 	 1.268417 
H 	 6.685757 	 -0.887829 	 1.855986 
H 	 3.899168 	 -4.608244 	 0.569219 
H 	 2.743106 	 -5.634116 	 0.758925 
H 	 1.969602 	 0.106073 	 5.996763 
H 	 1.790901 	 1.360752 	 5.147478 
H 	 6.221330 	 -7.357823 	 -6.238134 
H 	 4.915347 	 6.744683 	 -5.680581 
H 	 -5.726411 	 3.065226 	 3.085406 
H 	 -4.214122 	 2.494121 	 3.469336 
H 	 4.116019 	 5.689884 	 2.947664 
H 	 4.421160 	 6.791213 	 1.926706 
H 	 3.612378 	 3.324574 	 4.215959 
H 	 4.281410 	 4.462917 	 5.151700 
H 	 2.846847 	 -1.744518 	 4.533798 
H 	 2.338549 	 -2.358784 	 5.845682 
H 	 -0.075773 	 -5.592178 	 -2.763171 
H 	 0.442236 	 -7.031827 	 -3.326373 
H 	 3.749835 	 -2.975274 	 -4.313949 
H 	 2.819394 	 -3.731916 	 -3.281428 
H 	 -7.347568 	 6.736807 	 2.898024 
H 	 6.184161 	 7.132957 	 3.623332 
H 	 -0.821261 	 -4.773050 	 4.243120 
H 	 -0.343932 	 -4.818375 	 2.722568 
H 	 -1.665270 	 6.286079 	 3.554032 
H 	 -1.548155 	 5.114205 	 4.591433 
H 	 -0.559313 	 -2.069544 	 -3.163763 
H 	 0.863667 	 -2.084919 	 -2.551111 
H 	 1.191448 	 6.189605 	 -2.368810 
H 	 0.550120 	 5.253216 	 -3.444249 
H 	 -4.119954 	 -2.092762 	 -3.187602 
H 	 -5.366824 	 -1.130534 	 -3.123856 
H 	 -5.322173 	 6.600628 	 3.551861 
H 	 -4.415091 	 5.468368 	 3.127371 
H 	 -0.838721 	 1.360713 	 1.218322 
H 	 -0.240008 	 2.812401 	 1.450905 
H 	 -2.372956 	 6.794404 	 -0.880761 
H 	 -1.709983 	 -6.677179 	 -0.555000 
H 	 7.225088 	 -5.331375 	 7.361359 
H 	 -6.399009 	 -5.564119 	 -6.903927 
H 	 -2.126307 	 -0.179787 	 6.942965 
H 	 -3.396025 	 -0.551844 	 -7.245152 
H 	 3.794404 	 3.096103 	 -5.553386 
H 	 3.553584 	 3.561618 	 -4.118838 
H 	 -1.581542 	 0.595923 	 -4.287206 
H 	 -2.668272 	 0.836302 	 -3.252529 
H 	 -1.474355 	 3.152507 	 -4.410465 
H 	 -2.705282 	 2.835900 	 -5.039594 
H 	 5.004811 	 -1.561524 	 -1.291385 
H 	 4.010038 	 -0.461878 	 -1.863160 
H 	 5.442943 	 0.773382 	 2.479022 
H 	 5.358486 	 1.566903 	 3.814283 
H 	 -5.310440 	 -5.656048 	 -2.330518 
H 	 -5.880468 	 -6.656627 	 -1.264664 
H 	 0.975564 	 2.992338 	 -2.511521 
H 	 0.932163 	 2.259309 	 -3.820915 
H 	 -0.745846 	 -2.873598 	 1.543466 
H 	 0.529819 	 -3.619292 	 1.000557 
H 	 -6.721721 	 -1.618905 	 5.813261 
H 	 7.174423 	 -0.988582 	 6.918174 
H 	 -2.382106 	 -2.741899 	 -4.240020 
H 	 -2.409581 	 -3.522117 	 -2.947456 
H 	 -1.534653 	 4.797143 	 7.459519 
H 	 -1.059826 	 5.097521 	 -6.044186 
H 	 -5.031530 	 0.010774 	 -6.216042 
H 	 -3.710831 	 0.430190 	 -5.493663 
H 	 -7.168334 	 -2.320970 	 -1.156216 
H 	 6.933706 	 -3.447173 	 -1.722415 
H 	 3.165171 	 -7.322006 	 -5.187693 
H 	 3.006238 	 5.925455 	 -5.164540 
H 	 6.139571 	 -3.535271 	 1.511769 
H 	 6.021978 	 -3.378065 	 0.078965 
H 	 6.500604 	 -6.624815 	 0.189902 
H 	 6.576400 	 6.853821 	 0.811827 
H 	 -7.191623 	 -2.929340 	 3.291708 
H 	 6.845384 	 -3.620932 	 4.296448 
H 	 2.095497 	 2.061119 	 -0.221652 
H 	 0.696855 	 1.406178 	 -0.473202 
H 	 4.795657 	 -5.672613 	 -1.208870 
H 	 5.967540 	 -5.717861 	 -2.254813 
H 	 5.221966 	 1.333240 	 -5.694025 
H 	 6.000557 	 1.658562 	 -4.306445 
H 	 -1.407632 	 2.711061 	 6.246905 
H 	 -2.869492 	 3.445083 	 6.463030 
H 	 -5.471723 	 -4.907762 	 1.170646 
H 	 -5.880278 	 -4.688193 	 -0.238901 
H 	 6.223977 	 2.352007 	 -1.936249 
H 	 6.813782 	 3.355949 	 -2.794718 
H 	 3.389192 	 -7.500859 	 -2.425999 
H 	 2.602677 	 -7.095112 	 -1.146211 
H 	 6.435610 	 -6.144787 	 -4.514755 
H 	 5.314645 	 -5.267282 	 -5.204948 
H 	 2.977821 	 -2.474976 	 -1.422604 
H 	 2.350845 	 -3.906358 	 -1.052847 
H 	 -1.950871 	 -3.826657 	 6.026044 
H 	 -1.191831 	 -2.523612 	 5.318984 
H 	 -0.264096 	 -5.452446 	 -6.389689 
H 	 0.251716 	 -5.090222 	 -4.925572 
H 	 -0.709688 	 1.493533 	 -6.353301 
H 	 0.238532 	 1.290789 	 7.407292 
H 	 -1.204841 	 6.394029 	 -3.349557 
H 	 -1.465862 	 6.524705 	 -4.907965 
H 	 0.402702 	 -0.023062 	 -3.968195 
H 	 0.830997 	 0.264148 	 -5.436909 
H 	 -2.249457 	 -4.321479 	 -1.181903 
H 	 -1.101814 	 -4.415194 	 -0.143584 
H 	 2.954343 	 -0.651235 	 0.644421 
H 	 -0.968709 	 -1.011650 	 3.447377 
H 	 -4.152203 	 6.309599 	 -4.716551 
H 	 -4.925995 	 4.968521 	 -4.425602 
H 	 6.854440 	 6.833481 	 -2.843162 
H 	 5.677633 	 6.354633 	 -3.810525 
H 	 5.096013 	 -1.694723 	 -6.730766 
H 	 4.179638 	 -1.412675 	 6.841258 
H 	 0.812538 	 5.172311 	 1.968402 
H 	 0.643244 	 5.296474 	 0.510274 
H 	 -0.022418 	 -0.396431 	 4.620782 
O 	 -5.769058 	 4.878048 	 0.503816 
O 	 6.020430 	 1.167695 	 5.314365 
O 	 -4.109604 	 4.042296 	 7.378380 
O 	 7.173721 	 4.986774 	 -1.394259 
O 	 -4.808984 	 3.132688 	 -4.566704 
O 	 -6.798624 	 2.518029 	 -6.546916 
O 	 -2.446434 	 0.926100 	 -1.085702 
O 	 -4.821268 	 -3.701882 	 -6.611779 
O 	 -2.580113 	 2.221550 	 3.643086 
O 	 -3.513794 	 -6.202424 	 -5.608823 
O 	 4.724843 	 5.747629 	 -0.069492 
O 	 -2.134824 	 -2.934469 	 -5.915660 
O 	 3.450113 	 -5.722519 	 -5.832163 
O 	 -6.733680 	 -3.285065 	 -4.435986 
O 	 1.256694 	 5.067853 	 4.150767 
O 	 -6.807242 	 5.196092 	 -6.410191 
O 	 4.015142 	 2.180187 	 -7.208745 
O 	 -4.285044 	 -0.670712 	 4.470043 
O 	 -1.452051 	 -1.493881 	 1.703030 
O 	 1.810445 	 -2.371694 	 2.954746 
O 	 -0.876980 	 7.084727 	 2.062130 
O 	 3.022618 	 -5.071548 	 2.969504 
O 	 -6.494208 	 1.950418 	 0.155795 
O 	 -4.138854 	 6.109008 	 -1.501137 
O 	 2.955118 	 0.764388 	 -2.922837 
O 	 1.980697 	 5.707966 	 -6.975568 
O 	 -0.768136 	 -6.662411 	 7.289468 
O 	 1.863700 	 -7.529540 	 1.332744 
O 	 -5.776972 	 -6.142842 	 5.025447 
O 	 -6.711149 	 -0.993012 	 2.833571 
O 	 5.063150 	 4.530782 	 6.826984 
O 	 -6.377057 	 -0.505912 	 -5.346539 
O 	 7.265446 	 3.769691 	 2.674992 
O 	 -5.461956 	 -3.242875 	 5.544845 
O 	 -5.359739 	 1.101120 	 -2.408940 
O 	 5.559766 	 1.685341 	 -0.272343 
O 	 -4.342044 	 0.439194 	 1.348521 
O 	 2.176732 	 1.753133 	 3.531240 
O 	 1.988572 	 -1.261810 	 -6.015695 
O 	 5.972221 	 -3.955608 	 6.359161 
O 	 0.877021 	 -6.954046 	 5.051932 
O 	 5.165757 	 -1.747076 	 -4.513862 
O 	 -3.492105 	 -5.369886 	 -2.997971 
O 	 -7.272842 	 4.778979 	 5.538830 
O 	 1.553415 	 -3.478748 	 7.045321 
O 	 3.254910 	 3.190774 	 1.005005 
O 	 -4.024866 	 6.798467 	 5.906406 
O 	 -3.009561 	 -5.360508 	 6.239086 
O 	 -0.116738 	 -0.216889 	 0.024355 
O 	 -3.324643 	 -2.852239 	 -0.178343 
O 	 -2.301065 	 3.615277 	 -1.724177 
O 	 3.689173 	 -6.022250 	 5.730566 
O 	 5.878610 	 -0.694224 	 1.364726 
O 	 3.191497 	 -5.116672 	 0.091909 
O 	 1.745326 	 1.054005 	 6.042299 
O 	 5.598450 	 6.769714 	 -6.412320 
O 	 -5.180372 	 2.491374 	 3.710054 
O 	 4.123503 	 6.659816 	 2.839963 
O 	 3.960201 	 4.250336 	 4.229698 
O 	 2.810188 	 -1.589129 	 5.528805 
O 	 0.505597 	 -6.062692 	 -3.388524 
O 	 3.052267 	 -3.701763 	 -4.252611 
O 	 7.149577 	 7.097708 	 3.723440 
O 	 -0.615751 	 -5.430468 	 3.481897 
O 	 -2.186363 	 5.656059 	 4.121425 
O 	 0.176855 	 -1.496653 	 -2.916331 
O 	 0.328121 	 5.771337 	 -2.611515 
O 	 -5.049005 	 -2.001327 	 -2.841076 
O 	 -5.008222 	 6.161879 	 2.778347 
O 	 -0.595568 	 2.018590 	 1.873559 
O 	 -1.559263 	 7.222003 	 -0.543307 
O 	 -6.970056 	 -6.014699 	 7.409100 
O 	 -2.753054 	 -0.917500 	 6.977967 
O 	 3.833328 	 3.868530 	 -4.973183 
O 	 -2.523715 	 0.852987 	 -4.211624 
O 	 -2.022875 	 3.542342 	 -5.120767 
O 	 4.087109 	 -1.139298 	 -1.183161 
O 	 5.158030 	 1.622551 	 2.888156 
O 	 -6.090639 	 -5.860791 	 -1.710492 
O 	 0.980402 	 3.149367 	 -3.456527 
O 	 -0.389141 	 -3.817302 	 1.241655 
O 	 -7.216636 	 -0.828578 	 6.095275 
O 	 -2.321296 	 -2.587260 	 -3.253753 
O 	 -1.279877 	 5.579080 	 -6.869606 
O 	 -4.238772 	 0.592242 	 -6.362908 
O 	 6.881192 	 -2.497718 	 -1.532256 
O 	 3.459709 	 6.704229 	 -4.766939 
O 	 5.409969 	 -3.491005 	 0.836005 
O 	 6.957002 	 -7.165955 	 0.836766 
O 	 7.047067 	 -3.660713 	 3.298905 
O 	 1.384278 	 2.036341 	 -0.880933 
O 	 5.722536 	 -5.427127 	 -1.348900 
O 	 5.974763 	 1.070409 	 -5.128782 
O 	 -1.872592 	 3.525409 	 6.077108 
O 	 -5.561427 	 -4.179737 	 0.520160 
O 	 6.548479 	 2.391823 	 -2.845459 
O 	 2.956611 	 7.064507 	 -1.624901 
O 	 6.233195 	 -5.223460 	 -4.863848 
O 	 2.306072 	 -3.137810 	 -1.693557 
O 	 -1.134672 	 -3.490708 	 5.643829 
O 	 -0.035951 	 -4.695127 	 -5.809077 
O 	 -0.703187 	 1.370509 	 -7.322129 
O 	 -1.918506 	 6.680406 	 -4.030600 
O 	 0.354852 	 0.671201 	 -4.666649 
O 	 -1.587342 	 -4.956261 	 -0.781470 
O 	 2.268027 	 -0.341835 	 1.280562 
O 	 -5.024839 	 5.966819 	 -4.472691 
O 	 6.222603 	 7.128948 	 -3.546864 
O 	 5.130898 	 -1.482826 	 7.205062 
O 	 0.791192 	 4.580163 	 1.137858 
O 	 -0.406563 	 -1.205964 	 4.231077 
K 	 -5.592354 	 1.560493 	 6.043595 
