333
conformation = 44
H 	 -5.843288 	 3.921054 	 0.649008 
H 	 -5.831419 	 5.138837 	 1.452608 
H 	 5.508874 	 0.949428 	 6.164157 
H 	 6.695103 	 0.479730 	 5.270727 
H 	 -4.117208 	 3.892609 	 -6.843947 
H 	 -4.199105 	 5.002062 	 6.995372 
H 	 6.266838 	 5.125338 	 -0.966695 
H 	 -7.092827 	 4.752504 	 -0.924953 
H 	 -4.971431 	 2.614189 	 -3.726565 
H 	 -5.442240 	 2.686389 	 -5.171024 
H 	 -7.619572 	 2.008011 	 -6.195853 
H 	 -6.983330 	 3.485007 	 -6.520193 
H 	 -1.667765 	 0.415039 	 -0.554671 
H 	 -2.408459 	 1.682096 	 -1.083450 
H 	 -5.380538 	 -3.592111 	 -5.831500 
H 	 -3.885769 	 -3.621958 	 -6.333670 
H 	 -1.937398 	 2.172288 	 2.928804 
H 	 -2.332880 	 2.659426 	 4.437531 
H 	 -3.913054 	 -5.346638 	 -6.219527 
H 	 -2.670154 	 -6.291120 	 -6.024975 
H 	 4.119855 	 4.735967 	 0.216897 
H 	 4.078116 	 6.045332 	 -0.642636 
H 	 -1.310162 	 -3.541874 	 -6.057346 
H 	 -2.171177 	 -2.270807 	 -6.600663 
H 	 3.226273 	 -5.649719 	 -6.810110 
H 	 3.182954 	 -4.975984 	 -5.367811 
H 	 -7.276903 	 -3.842328 	 -4.210803 
H 	 -6.061204 	 -2.873914 	 -3.877573 
H 	 2.070868 	 4.906192 	 4.052360 
H 	 1.144217 	 6.097783 	 4.268635 
H 	 7.229314 	 5.745963 	 -6.065965 
H 	 -6.129797 	 5.697916 	 -5.944626 
H 	 4.365536 	 2.869347 	 7.297744 
H 	 3.231618 	 1.943158 	 7.240898 
H 	 -3.427743 	 -0.442255 	 4.955370 
H 	 -4.240964 	 -1.616767 	 4.536386 
H 	 -1.002727 	 -1.029894 	 1.150766 
H 	 -2.368167 	 -1.701912 	 1.495321 
H 	 1.164610 	 -2.055642 	 3.362410 
H 	 2.301691 	 -1.802299 	 2.255690 
H 	 -1.366843 	 6.985409 	 1.325027 
H 	 -1.348587 	 -7.129631 	 2.620284 
H 	 2.562297 	 -4.213003 	 3.035394 
H 	 2.351731 	 -5.817153 	 2.821386 
H 	 -6.085748 	 1.161164 	 0.778945 
H 	 -7.402539 	 1.802385 	 0.281175 
H 	 -4.658912 	 6.081537 	 -2.203872 
H 	 -4.662191 	 5.652292 	 -0.660729 
H 	 2.476792 	 0.427535 	 -3.837981 
H 	 2.406461 	 1.093729 	 -2.467618 
H 	 1.838951 	 4.778200 	 -6.525809 
H 	 0.996345 	 5.779706 	 -7.344577 
H 	 -0.018308 	 -6.693131 	 6.586258 
H 	 -0.919647 	 -7.608989 	 -7.390905 
H 	 2.422864 	 6.933237 	 2.031066 
H 	 0.867521 	 -7.678644 	 1.693944 
H 	 -6.620386 	 -6.473592 	 4.463569 
H 	 -6.230050 	 -6.385952 	 5.942715 
H 	 -5.939476 	 -1.112373 	 2.153193 
H 	 -6.511186 	 -0.362756 	 3.320807 
H 	 5.197206 	 5.312889 	 7.429789 
H 	 6.090839 	 4.625971 	 6.462921 
H 	 -6.701755 	 -1.442847 	 -5.009176 
H 	 -7.111704 	 0.050918 	 -5.041308 
H 	 7.179930 	 3.614268 	 3.616158 
H 	 6.395660 	 2.858202 	 2.503837 
H 	 -6.021808 	 -4.052037 	 5.002681 
H 	 -5.293927 	 -3.649870 	 6.319632 
H 	 -4.379962 	 0.873102 	 -2.091542 
H 	 -5.688806 	 1.478137 	 -1.633904 
H 	 5.597650 	 0.881952 	 0.242102 
H 	 4.814553 	 2.186975 	 0.040347 
H 	 -3.782889 	 0.121504 	 2.086453 
H 	 -3.775176 	 0.641873 	 0.528498 
H 	 1.386263 	 2.023127 	 3.109846 
H 	 2.426583 	 1.010760 	 2.825243 
H 	 2.220807 	 -1.976529 	 -5.459836 
H 	 1.697804 	 -1.736733 	 -6.848990 
H 	 5.584583 	 -3.438265 	 6.933496 
H 	 5.058762 	 -4.766041 	 6.181312 
H 	 0.813149 	 -6.372702 	 4.531726 
H 	 1.922232 	 -6.821326 	 5.483875 
H 	 5.448255 	 -1.008609 	 -4.564512 
H 	 6.069268 	 -2.343865 	 -4.300535 
H 	 -3.487904 	 -5.998723 	 -3.880034 
H 	 -3.051197 	 -6.331509 	 -2.509621 
H 	 -6.789157 	 5.003385 	 6.516593 
H 	 -7.205618 	 5.681511 	 5.097445 
H 	 1.103801 	 -3.840540 	 -7.081953 
H 	 0.529368 	 -3.500741 	 6.399417 
H 	 3.545155 	 2.607296 	 1.658672 
H 	 2.462738 	 3.650336 	 1.051258 
H 	 -4.563012 	 -7.672380 	 5.320937 
H 	 -3.284246 	 6.481678 	 5.536084 
H 	 -2.345333 	 -6.155406 	 6.375958 
H 	 -3.721549 	 -5.779058 	 5.865605 
H 	 1.441637 	 -0.419462 	 0.693706 
H 	 -0.126462 	 -0.671566 	 -0.849128 
H 	 -4.192362 	 -3.204266 	 0.124197 
H 	 -3.346208 	 -2.222594 	 -0.820793 
H 	 -1.568769 	 4.235226 	 -1.852573 
H 	 -3.073899 	 4.331473 	 -1.939168 
H 	 4.309355 	 -6.874207 	 5.790121 
H 	 3.747289 	 -5.686333 	 4.736208 
H 	 5.522355 	 -1.741742 	 1.173240 
H 	 6.593159 	 -0.991121 	 1.907481 
H 	 4.001700 	 -4.690870 	 0.574081 
H 	 2.879135 	 -5.887300 	 0.626347 
H 	 2.317776 	 0.044452 	 5.969287 
H 	 1.955607 	 1.469025 	 5.277597 
H 	 5.917639 	 -7.374685 	 -6.703610 
H 	 4.937716 	 6.649462 	 -5.850794 
H 	 -5.818797 	 3.081271 	 3.214988 
H 	 -4.360064 	 2.405312 	 3.440667 
H 	 4.145041 	 5.710536 	 3.243373 
H 	 4.471702 	 6.575142 	 2.013667 
H 	 3.873079 	 3.307919 	 3.979083 
H 	 4.244494 	 4.316377 	 5.119653 
H 	 2.692187 	 -1.932296 	 4.681241 
H 	 2.448208 	 -2.197452 	 6.170458 
H 	 0.199180 	 -5.563765 	 -2.536462 
H 	 -0.001948 	 -6.794906 	 -3.389733 
H 	 3.797881 	 -3.099089 	 -4.215356 
H 	 2.819698 	 -3.714735 	 -3.290356 
H 	 7.163138 	 7.160727 	 2.862496 
H 	 6.174069 	 7.008203 	 4.062439 
H 	 -1.099047 	 -4.863646 	 4.194094 
H 	 -0.750340 	 -4.849777 	 2.707339 
H 	 -1.595742 	 5.555074 	 3.530799 
H 	 -1.618160 	 4.889561 	 4.930037 
H 	 -0.682177 	 -1.988195 	 -2.853991 
H 	 0.789045 	 -2.397777 	 -2.680672 
H 	 0.960000 	 6.164520 	 -2.119320 
H 	 0.591417 	 4.770177 	 -2.917604 
H 	 -4.205565 	 -2.093424 	 -2.972731 
H 	 -5.307252 	 -0.872886 	 -2.920523 
H 	 -5.289292 	 6.634008 	 3.579273 
H 	 -4.150070 	 5.654041 	 3.243615 
H 	 -0.260900 	 1.198290 	 1.190785 
H 	 -0.291442 	 2.724136 	 1.273054 
H 	 -2.364816 	 6.737345 	 -0.867820 
H 	 -1.537940 	 -6.778400 	 -0.667931 
H 	 -7.616210 	 -5.219268 	 7.245415 
H 	 -6.353925 	 -5.702917 	 -6.976570 
H 	 -1.773168 	 -0.566038 	 7.131110 
H 	 -3.185918 	 -0.455991 	 -7.278951 
H 	 3.717044 	 3.089955 	 -5.530306 
H 	 3.267346 	 3.675611 	 -4.145658 
H 	 -1.588907 	 0.774323 	 -4.355208 
H 	 -2.648184 	 0.954079 	 -3.215676 
H 	 -1.537173 	 3.343366 	 -4.277742 
H 	 -2.984112 	 3.261350 	 -4.818521 
H 	 5.062128 	 -1.465302 	 -1.463749 
H 	 3.785425 	 -0.756337 	 -2.088214 
H 	 5.021492 	 0.873099 	 2.336103 
H 	 5.380071 	 1.301703 	 3.901133 
H 	 -5.384524 	 -6.051997 	 -2.096765 
H 	 -6.189903 	 -6.673041 	 -1.051242 
H 	 0.927421 	 2.587196 	 -2.651532 
H 	 0.676981 	 2.499011 	 -4.201667 
H 	 -0.824490 	 -2.983858 	 1.464980 
H 	 0.628869 	 -3.571926 	 1.461685 
H 	 -6.622106 	 -1.841505 	 5.703556 
H 	 7.075677 	 -1.281652 	 6.540126 
H 	 -2.261579 	 -2.612947 	 -4.336471 
H 	 -2.606788 	 -3.648690 	 -3.229296 
H 	 -1.161885 	 4.963468 	 7.224783 
H 	 -1.813318 	 4.845029 	 -6.268644 
H 	 -4.985621 	 0.333354 	 -5.869970 
H 	 -3.510772 	 0.873775 	 -5.780545 
H 	 -7.016406 	 -2.224756 	 -1.853840 
H 	 6.888576 	 -3.425518 	 -1.700592 
H 	 3.304115 	 -7.270646 	 -5.053918 
H 	 2.989014 	 6.136418 	 -5.068695 
H 	 5.945082 	 -3.839777 	 1.813218 
H 	 6.345335 	 -3.336323 	 0.433364 
H 	 6.481039 	 -6.321051 	 0.180934 
H 	 6.693778 	 7.031619 	 0.301775 
H 	 -7.608317 	 -2.845154 	 3.268366 
H 	 6.312307 	 -3.770481 	 4.006515 
H 	 2.087097 	 2.263235 	 -0.331266 
H 	 1.079711 	 1.092192 	 -0.469455 
H 	 4.654812 	 -5.196206 	 -1.066473 
H 	 5.815086 	 -5.972367 	 -1.869047 
H 	 5.388132 	 1.411840 	 -5.624313 
H 	 6.105626 	 1.722309 	 -4.230770 
H 	 -1.418696 	 2.729489 	 6.657036 
H 	 -2.479675 	 3.760276 	 6.289515 
H 	 -5.814415 	 -4.950479 	 1.254939 
H 	 -5.776485 	 -4.614022 	 -0.346632 
H 	 6.050876 	 1.875864 	 -2.130560 
H 	 6.604886 	 3.317282 	 -2.511753 
H 	 2.986106 	 7.096547 	 -2.737953 
H 	 2.700999 	 -6.898713 	 -1.513352 
H 	 6.306660 	 -6.048839 	 -4.309809 
H 	 5.405379 	 -5.233377 	 -5.218802 
H 	 2.973154 	 -2.541448 	 -1.564169 
H 	 2.592289 	 -3.997064 	 -1.026922 
H 	 -2.068096 	 -4.067478 	 5.875008 
H 	 -1.322152 	 -2.686626 	 5.237245 
H 	 -0.216479 	 -5.529335 	 -6.350424 
H 	 0.165434 	 -5.154325 	 -4.876993 
H 	 -0.623745 	 1.712541 	 -6.302249 
H 	 0.209320 	 1.231785 	 7.363874 
H 	 -1.147067 	 6.200889 	 -3.352279 
H 	 -1.593911 	 6.653377 	 -4.738358 
H 	 0.185402 	 -0.207996 	 -3.902405 
H 	 0.636981 	 -0.015250 	 -5.359980 
H 	 -2.326502 	 -4.537490 	 -0.795847 
H 	 -0.977621 	 -4.820534 	 -0.005322 
H 	 2.982864 	 -0.164638 	 0.334716 
H 	 -0.991331 	 -1.174325 	 3.479212 
H 	 -4.226146 	 6.465254 	 -4.547009 
H 	 -4.683943 	 4.935558 	 -4.496424 
H 	 6.543274 	 6.171019 	 -2.944957 
H 	 5.413928 	 6.801104 	 -3.849274 
H 	 4.522277 	 -1.485347 	 -6.890290 
H 	 4.528340 	 -1.495196 	 6.400618 
H 	 0.732320 	 5.012917 	 1.980706 
H 	 0.784461 	 5.371169 	 0.490548 
H 	 -0.436819 	 -0.324858 	 4.721076 
O 	 -5.775007 	 4.902518 	 0.491277 
O 	 6.080587 	 1.198236 	 5.400645 
O 	 -3.996150 	 4.058797 	 7.117118 
O 	 7.059299 	 4.876099 	 -1.540264 
O 	 -4.908124 	 3.193582 	 -4.515218 
O 	 -6.819674 	 2.514711 	 -6.552977 
O 	 -2.535885 	 0.711969 	 -1.038927 
O 	 -4.803328 	 -3.823376 	 -6.585365 
O 	 -2.627872 	 2.167715 	 3.655195 
O 	 -3.591012 	 -6.126761 	 -5.713201 
O 	 4.640674 	 5.506009 	 -0.052462 
O 	 -2.142083 	 -3.008158 	 -5.976715 
O 	 3.548821 	 -5.766757 	 -5.891464 
O 	 -6.729393 	 -3.135065 	 -4.554521 
O 	 1.135724 	 5.141692 	 3.959585 
O 	 -6.885412 	 5.246123 	 -6.380836 
O 	 4.018823 	 2.068989 	 -7.149718 
O 	 -4.240238 	 -0.632768 	 4.400712 
O 	 -1.445490 	 -1.594467 	 1.859234 
O 	 2.007203 	 -2.415755 	 3.032402 
O 	 -1.014029 	 6.929322 	 2.237149 
O 	 3.006936 	 -5.112638 	 3.148354 
O 	 -6.418349 	 1.905509 	 0.222038 
O 	 -4.100301 	 5.984375 	 -1.380041 
O 	 3.063512 	 0.692447 	 -3.115902 
O 	 1.872561 	 5.601613 	 -6.987119 
O 	 -0.756869 	 -6.652573 	 7.247670 
O 	 1.767505 	 -7.694119 	 1.330945 
O 	 -5.836196 	 -6.338540 	 5.007592 
O 	 -6.783168 	 -0.978396 	 2.592701 
O 	 5.192347 	 4.500183 	 6.828378 
O 	 -6.384133 	 -0.556809 	 -5.319160 
O 	 7.025084 	 3.600851 	 2.663192 
O 	 -5.541062 	 -3.347801 	 5.465112 
O 	 -5.210772 	 1.147120 	 -2.467684 
O 	 5.561564 	 1.680027 	 -0.245402 
O 	 -4.336913 	 0.442059 	 1.323165 
O 	 2.331701 	 1.834114 	 3.358197 
O 	 1.888298 	 -1.250942 	 -5.982169 
O 	 5.864139 	 -4.184635 	 6.343872 
O 	 1.058199 	 -7.114526 	 5.145464 
O 	 5.233381 	 -1.975088 	 -4.488411 
O 	 -3.499875 	 -5.617017 	 -2.985822 
O 	 -7.220348 	 4.861432 	 5.638738 
O 	 1.377625 	 -3.458299 	 6.923148 
O 	 3.281756 	 3.104585 	 0.902763 
O 	 -4.051834 	 6.797980 	 6.039677 
O 	 -2.920909 	 -5.355059 	 6.280279 
O 	 -0.180131 	 -0.270711 	 0.040913 
O 	 -3.280505 	 -2.887540 	 -0.129676 
O 	 -2.366739 	 3.668056 	 -1.797380 
O 	 3.735797 	 -6.050268 	 5.659979 
O 	 5.764171 	 -0.832614 	 1.337845 
O 	 3.290408 	 -5.154666 	 0.094348 
O 	 1.829085 	 0.912487 	 6.131895 
O 	 5.716118 	 6.613074 	 -6.456744 
O 	 -5.269714 	 2.579709 	 3.792149 
O 	 3.957530 	 6.601562 	 2.843021 
O 	 3.952125 	 4.245475 	 4.189655 
O 	 2.923713 	 -1.570518 	 5.546495 
O 	 0.566926 	 -6.010294 	 -3.302977 
O 	 3.024391 	 -3.725492 	 -4.270069 
O 	 7.105997 	 6.961582 	 3.832323 
O 	 -0.617480 	 -5.341233 	 3.533026 
O 	 -2.152115 	 5.498450 	 4.325421 
O 	 0.256076 	 -1.611188 	 -2.896341 
O 	 0.330712 	 5.664746 	 -2.667189 
O 	 -5.119033 	 -1.833377 	 -2.768231 
O 	 -4.958031 	 6.072871 	 2.855103 
O 	 -0.452291 	 1.944405 	 1.830063 
O 	 -1.491647 	 7.151958 	 -0.601827 
O 	 -7.069221 	 -6.065357 	 7.364806 
O 	 -2.623836 	 -1.008245 	 7.033892 
O 	 3.703936 	 3.895265 	 -4.961499 
O 	 -2.535243 	 0.858791 	 -4.192479 
O 	 -2.038310 	 3.433210 	 -5.110864 
O 	 4.100358 	 -1.275251 	 -1.301220 
O 	 5.165882 	 1.661119 	 2.950765 
O 	 -6.239028 	 -5.898798 	 -1.659423 
O 	 0.900869 	 3.174363 	 -3.488227 
O 	 -0.285250 	 -3.806769 	 1.212472 
O 	 -7.178302 	 -1.026331 	 5.879848 
O 	 -2.436980 	 -2.673788 	 -3.377938 
O 	 -1.284224 	 5.442710 	 -6.845151 
O 	 -4.163042 	 0.554626 	 -6.368379 
O 	 6.970972 	 -2.473814 	 -1.469074 
O 	 3.550810 	 6.778092 	 -4.630558 
O 	 5.548424 	 -3.521873 	 0.962329 
O 	 6.824110 	 -7.024555 	 0.804875 
O 	 6.953878 	 -3.758351 	 3.277949 
O 	 1.405170 	 1.902758 	 -0.903426 
O 	 5.596413 	 -5.218495 	 -1.251846 
O 	 6.085443 	 1.054768 	 -5.035884 
O 	 -1.675591 	 3.358388 	 5.914016 
O 	 -5.529724 	 -4.258545 	 0.596352 
O 	 6.472252 	 2.424800 	 -2.870323 
O 	 2.812352 	 7.036921 	 -1.735976 
O 	 6.285785 	 -5.209746 	 -4.813463 
O 	 2.341993 	 -3.321340 	 -1.693177 
O 	 -1.209915 	 -3.587722 	 5.632525 
O 	 0.093110 	 -4.766971 	 -5.761834 
O 	 -0.758796 	 1.342830 	 -7.197902 
O 	 -1.889904 	 6.557949 	 -3.817759 
O 	 0.310324 	 0.515971 	 -4.606631 
O 	 -1.478468 	 -5.092138 	 -0.851278 
O 	 2.355607 	 -0.342858 	 1.050779 
O 	 -4.974165 	 5.869214 	 -4.496918 
O 	 6.243746 	 6.952349 	 -3.433346 
O 	 5.088499 	 -1.527333 	 7.180392 
O 	 0.881683 	 4.616372 	 1.076802 
O 	 -0.552069 	 -1.207454 	 4.380410 
K 	 -5.633103 	 1.470257 	 6.036521 
