333
conformation = 27
H 	 -5.834728 	 3.944659 	 0.517477 
H 	 -5.936630 	 5.463376 	 1.252354 
H 	 5.494788 	 0.972386 	 6.085812 
H 	 6.624178 	 0.483076 	 5.274373 
H 	 -3.969367 	 3.987036 	 -6.817124 
H 	 -4.377804 	 5.000125 	 6.962283 
H 	 6.391259 	 5.123939 	 -0.862853 
H 	 -7.003361 	 5.001528 	 -1.053380 
H 	 -4.905700 	 2.658744 	 -3.817956 
H 	 -5.469433 	 2.741060 	 -5.284251 
H 	 -7.620119 	 2.082885 	 -6.239064 
H 	 -7.055578 	 3.510967 	 -6.505208 
H 	 -1.811916 	 0.346044 	 -0.615713 
H 	 -2.295706 	 1.772165 	 -1.160959 
H 	 -5.432180 	 -3.741337 	 -5.907679 
H 	 -4.020709 	 -3.318901 	 -6.405759 
H 	 -1.987694 	 2.391646 	 2.841561 
H 	 -2.460420 	 2.960902 	 4.127157 
H 	 -3.925524 	 -5.433280 	 -6.379435 
H 	 -2.699500 	 -6.264011 	 -6.072859 
H 	 4.102346 	 4.916456 	 0.220511 
H 	 3.999081 	 6.206977 	 -0.635183 
H 	 -1.342295 	 -3.478969 	 -6.039941 
H 	 -2.153818 	 -2.332297 	 -6.781049 
H 	 3.169292 	 -5.549244 	 -6.840191 
H 	 3.253982 	 -4.928120 	 -5.358660 
H 	 -7.382308 	 -3.835483 	 -4.198327 
H 	 -6.186970 	 -2.824458 	 -3.878682 
H 	 2.069999 	 4.856325 	 3.958452 
H 	 1.111066 	 5.987687 	 4.463596 
H 	 7.248253 	 5.824520 	 -6.459959 
H 	 -6.174577 	 5.690436 	 -5.979059 
H 	 4.244559 	 3.042269 	 7.348215 
H 	 3.217848 	 1.746961 	 7.178233 
H 	 -3.551976 	 -0.475763 	 4.955586 
H 	 -4.528379 	 -1.565053 	 4.417147 
H 	 -0.999802 	 -1.093510 	 0.871723 
H 	 -2.321643 	 -1.870178 	 1.443726 
H 	 0.981985 	 -2.128367 	 3.201789 
H 	 2.068564 	 -1.733930 	 2.146071 
H 	 -1.316470 	 7.025607 	 1.147645 
H 	 -0.997290 	 -6.954742 	 2.448975 
H 	 2.334192 	 -4.297559 	 2.895286 
H 	 2.450402 	 -5.847134 	 2.768837 
H 	 -6.130493 	 1.398840 	 0.779531 
H 	 -7.481005 	 1.906310 	 0.104282 
H 	 -4.640225 	 5.756762 	 -2.315255 
H 	 -4.639614 	 5.683322 	 -0.782692 
H 	 2.586089 	 0.759592 	 -4.004990 
H 	 2.321397 	 1.129224 	 -2.502738 
H 	 1.828207 	 4.758216 	 -6.716019 
H 	 1.024794 	 5.726620 	 7.394656 
H 	 -0.164532 	 -6.572232 	 6.411960 
H 	 -0.935313 	 -7.617492 	 7.360162 
H 	 2.196006 	 6.962874 	 2.095484 
H 	 0.845974 	 -7.471697 	 1.502191 
H 	 -6.559063 	 -6.350466 	 4.293479 
H 	 -6.359350 	 -6.229383 	 5.798779 
H 	 -6.032735 	 -0.975903 	 2.028926 
H 	 -6.613721 	 -0.266819 	 3.259320 
H 	 5.076980 	 5.303787 	 7.362759 
H 	 5.957986 	 4.539772 	 6.272843 
H 	 -6.637876 	 -1.458380 	 -5.370850 
H 	 -7.255741 	 0.024501 	 -5.216151 
H 	 7.007299 	 3.766878 	 3.545879 
H 	 6.522870 	 2.898837 	 2.416604 
H 	 -5.977409 	 -4.061867 	 5.026231 
H 	 -5.332522 	 -3.607943 	 6.311886 
H 	 -4.486836 	 0.904301 	 -2.131874 
H 	 -5.956656 	 1.309414 	 -1.739020 
H 	 5.363377 	 0.846324 	 -0.028180 
H 	 4.683143 	 2.179251 	 -0.196618 
H 	 -3.829466 	 0.213087 	 2.045523 
H 	 -3.683246 	 0.843790 	 0.627449 
H 	 1.370021 	 2.002299 	 2.938441 
H 	 2.593834 	 1.036926 	 2.917685 
H 	 1.753394 	 -1.755448 	 -5.270388 
H 	 1.604774 	 -1.823989 	 -6.844188 
H 	 5.792511 	 -3.090178 	 6.520466 
H 	 4.913167 	 -4.327708 	 6.169739 
H 	 0.664707 	 -6.233947 	 4.506282 
H 	 1.883317 	 -6.930719 	 5.259841 
H 	 5.346829 	 -0.914419 	 -4.510095 
H 	 5.942784 	 -2.310148 	 -4.272707 
H 	 -3.451865 	 -5.510480 	 -4.042842 
H 	 -3.184368 	 -6.313537 	 -2.750233 
H 	 -6.819118 	 5.262169 	 6.258764 
H 	 -7.394417 	 5.607047 	 4.896093 
H 	 1.295498 	 -3.791181 	 -7.070109 
H 	 0.525538 	 -3.435716 	 6.519259 
H 	 3.380059 	 3.014136 	 1.790239 
H 	 2.401479 	 3.668563 	 0.956585 
H 	 -4.823806 	 -7.498722 	 5.581158 
H 	 -3.518840 	 6.577183 	 5.082668 
H 	 -2.214580 	 -5.975323 	 6.247787 
H 	 -3.783486 	 -5.795642 	 5.867758 
H 	 1.445381 	 -0.346446 	 0.524115 
H 	 -0.116070 	 -0.619883 	 -0.935082 
H 	 -4.097607 	 -3.546546 	 -0.164978 
H 	 -3.662355 	 -2.256787 	 -0.915778 
H 	 -1.648128 	 4.304036 	 -1.953824 
H 	 -3.179741 	 4.257767 	 -1.878385 
H 	 4.047868 	 -6.903039 	 5.323376 
H 	 3.453089 	 -5.698295 	 4.701970 
H 	 5.273873 	 -1.501166 	 1.053090 
H 	 6.512308 	 -1.018043 	 1.949502 
H 	 3.892397 	 -4.661119 	 0.601031 
H 	 2.727949 	 -5.687296 	 0.662688 
H 	 2.021459 	 0.069425 	 5.707198 
H 	 2.024762 	 1.547645 	 5.147877 
H 	 6.052202 	 -7.365443 	 -6.490458 
H 	 4.794505 	 6.780724 	 -5.927073 
H 	 -5.657280 	 3.146094 	 3.071176 
H 	 -4.386848 	 2.364318 	 3.287970 
H 	 3.972182 	 5.661090 	 2.897625 
H 	 4.493321 	 6.813621 	 1.922951 
H 	 3.472439 	 3.440706 	 3.989837 
H 	 4.202918 	 4.308361 	 5.075174 
H 	 2.669889 	 -1.775316 	 4.524327 
H 	 2.339606 	 -2.260316 	 5.990692 
H 	 0.186320 	 -5.625591 	 -2.594104 
H 	 0.168476 	 -6.918779 	 -3.359220 
H 	 3.691718 	 -3.033743 	 -4.421159 
H 	 2.617779 	 -3.724588 	 -3.424606 
H 	 7.159492 	 6.849767 	 2.763683 
H 	 6.125483 	 6.912378 	 3.757854 
H 	 -1.126059 	 -4.783546 	 4.056663 
H 	 -0.586787 	 -4.824166 	 2.617374 
H 	 -1.661963 	 5.682028 	 3.352891 
H 	 -1.651444 	 5.105377 	 4.835764 
H 	 -0.719731 	 -2.008930 	 -3.059367 
H 	 0.898847 	 -2.221687 	 -2.952298 
H 	 1.078369 	 6.075291 	 -2.293993 
H 	 0.605975 	 4.926312 	 -3.102613 
H 	 -4.166512 	 -1.945768 	 -2.980910 
H 	 -5.232584 	 -0.920011 	 -3.077682 
H 	 -5.338632 	 6.690389 	 3.497438 
H 	 -4.358918 	 5.532537 	 3.126589 
H 	 -0.719877 	 1.242623 	 1.120785 
H 	 -0.357357 	 2.806943 	 1.226917 
H 	 -2.383718 	 6.775301 	 -0.968991 
H 	 -1.714110 	 -6.776819 	 -0.957935 
H 	 7.145320 	 -5.308709 	 7.218993 
H 	 -6.235099 	 -5.685875 	 -7.126059 
H 	 -1.936443 	 -0.360262 	 6.953093 
H 	 -3.400401 	 -0.414856 	 -7.491093 
H 	 3.752753 	 3.026585 	 -5.531733 
H 	 3.395816 	 3.640970 	 -4.164388 
H 	 -1.586758 	 0.810875 	 -4.288094 
H 	 -2.816118 	 1.014898 	 -3.350939 
H 	 -1.534295 	 3.236329 	 -4.444331 
H 	 -2.931651 	 3.017346 	 -5.074134 
H 	 4.959749 	 -1.443668 	 -1.482200 
H 	 3.817556 	 -0.618234 	 -2.121909 
H 	 4.824654 	 0.861085 	 2.396504 
H 	 5.490344 	 1.316622 	 3.740719 
H 	 -5.532311 	 -5.882244 	 -2.461625 
H 	 -6.074360 	 -6.590557 	 -1.067189 
H 	 0.812341 	 2.911235 	 -2.601005 
H 	 0.877720 	 2.345954 	 -4.106814 
H 	 -0.871367 	 -2.888278 	 1.310949 
H 	 0.539705 	 -3.570857 	 1.319873 
H 	 -6.743861 	 -1.733237 	 5.644273 
H 	 7.187652 	 -1.145816 	 6.698543 
H 	 -2.408217 	 -2.698876 	 -4.392578 
H 	 -2.744689 	 -3.477689 	 -3.098540 
H 	 -1.351611 	 4.731034 	 7.344273 
H 	 -1.448454 	 5.055552 	 -6.082782 
H 	 -5.116251 	 0.262968 	 -6.135365 
H 	 -3.754807 	 0.641911 	 -5.614839 
H 	 -7.037899 	 -2.143049 	 -1.596179 
H 	 6.871919 	 -3.422330 	 -1.777545 
H 	 3.217358 	 -7.289648 	 -5.184636 
H 	 2.952905 	 6.088733 	 -5.243405 
H 	 5.866240 	 -3.674670 	 1.674032 
H 	 6.157569 	 -3.269838 	 0.135183 
H 	 6.300831 	 -6.551265 	 0.048559 
H 	 6.593463 	 6.910148 	 0.547753 
H 	 -7.469546 	 -2.838120 	 3.108991 
H 	 6.406695 	 -3.619999 	 3.965441 
H 	 2.187215 	 2.289291 	 -0.545342 
H 	 0.928661 	 1.326437 	 -0.368356 
H 	 4.649358 	 -5.523160 	 -1.277336 
H 	 5.837275 	 -5.717300 	 -2.205737 
H 	 5.303433 	 1.435350 	 -5.768533 
H 	 6.048879 	 1.704827 	 -4.308608 
H 	 -1.444467 	 2.697569 	 6.444137 
H 	 -2.647825 	 3.717607 	 6.368195 
H 	 -5.750255 	 -4.977476 	 1.035314 
H 	 -5.975602 	 -4.509917 	 -0.394462 
H 	 6.048889 	 2.102372 	 -2.091566 
H 	 6.505055 	 3.397733 	 -2.819642 
H 	 3.311974 	 -7.652649 	 -2.634381 
H 	 2.511762 	 -6.973786 	 -1.341223 
H 	 6.325548 	 -5.963583 	 -4.390662 
H 	 5.305829 	 -5.218161 	 -5.288336 
H 	 2.954422 	 -2.479603 	 -1.577872 
H 	 2.527019 	 -3.846926 	 -1.077222 
H 	 -2.157108 	 -3.916970 	 5.626775 
H 	 -1.339077 	 -2.643488 	 5.215407 
H 	 -0.255831 	 -5.421853 	 -6.507865 
H 	 0.214807 	 -5.176583 	 -5.037638 
H 	 -0.752356 	 1.502930 	 -6.355612 
H 	 0.140071 	 1.341270 	 7.164899 
H 	 -1.213700 	 6.332345 	 -3.445772 
H 	 -1.564499 	 6.555391 	 -4.866811 
H 	 0.379399 	 -0.126286 	 -4.025345 
H 	 0.564731 	 0.098447 	 -5.515235 
H 	 -2.311650 	 -4.402666 	 -1.079315 
H 	 -1.100311 	 -4.506193 	 -0.141891 
H 	 2.951358 	 -0.070596 	 0.409740 
H 	 -1.086370 	 -0.949301 	 3.443884 
H 	 -4.212843 	 6.431700 	 -4.719558 
H 	 -4.760472 	 5.005845 	 -4.534682 
H 	 6.571847 	 6.398498 	 -2.972688 
H 	 5.442804 	 6.561936 	 -3.913142 
H 	 4.712573 	 -1.540201 	 -6.894969 
H 	 4.276052 	 -1.520676 	 6.565257 
H 	 0.752043 	 5.121130 	 1.849142 
H 	 0.638741 	 5.290321 	 0.292761 
H 	 -0.266428 	 -0.344745 	 4.592915 
O 	 -5.820496 	 4.918581 	 0.432293 
O 	 5.998965 	 1.221906 	 5.245573 
O 	 -4.070659 	 4.080573 	 7.147274 
O 	 7.074739 	 4.938537 	 -1.551023 
O 	 -4.914990 	 3.199949 	 -4.626986 
O 	 -6.848501 	 2.543052 	 -6.640876 
O 	 -2.522706 	 0.824949 	 -1.153996 
O 	 -4.835636 	 -3.737050 	 -6.686765 
O 	 -2.644981 	 2.218764 	 3.577624 
O 	 -3.605480 	 -6.135737 	 -5.747179 
O 	 4.627140 	 5.632553 	 -0.160219 
O 	 -2.182304 	 -2.955694 	 -6.029388 
O 	 3.458243 	 -5.729925 	 -5.956239 
O 	 -6.776266 	 -3.174842 	 -4.584112 
O 	 1.154976 	 5.138675 	 3.965187 
O 	 -6.897697 	 5.244803 	 -6.462032 
O 	 3.966734 	 2.159527 	 -7.276100 
O 	 -4.304348 	 -0.619673 	 4.345531 
O 	 -1.476827 	 -1.523222 	 1.706972 
O 	 1.888874 	 -2.365147 	 2.917384 
O 	 -1.012932 	 7.021878 	 2.087223 
O 	 2.974261 	 -5.065366 	 2.971692 
O 	 -6.493523 	 1.938363 	 0.117713 
O 	 -4.155871 	 6.076673 	 -1.521769 
O 	 2.963520 	 0.755230 	 -3.118995 
O 	 1.883830 	 5.685789 	 -7.062830 
O 	 -0.809953 	 -6.620416 	 7.182870 
O 	 1.776962 	 -7.635697 	 1.241479 
O 	 -5.836114 	 -6.240329 	 4.932103 
O 	 -6.811725 	 -0.956679 	 2.604914 
O 	 5.106531 	 4.555577 	 6.762123 
O 	 -6.399795 	 -0.509009 	 -5.416331 
O 	 7.086309 	 3.698376 	 2.576324 
O 	 -5.534268 	 -3.289314 	 5.410474 
O 	 -5.325586 	 1.162856 	 -2.538350 
O 	 5.522114 	 1.708827 	 -0.335667 
O 	 -4.386950 	 0.476350 	 1.237033 
O 	 2.234475 	 1.814652 	 3.348143 
O 	 1.900167 	 -1.224452 	 -6.091359 
O 	 5.864225 	 -4.066795 	 6.270356 
O 	 0.934399 	 -7.012773 	 5.006519 
O 	 5.164597 	 -1.850366 	 -4.582265 
O 	 -3.529950 	 -5.488388 	 -3.073376 
O 	 -7.282708 	 4.845691 	 5.507048 
O 	 1.429852 	 -3.444253 	 6.879039 
O 	 3.238386 	 3.144187 	 0.858874 
O 	 -4.078048 	 6.840512 	 5.887577 
O 	 -2.994565 	 -5.348812 	 6.175192 
O 	 -0.195549 	 -0.224027 	 -0.051402 
O 	 -3.346535 	 -2.844187 	 -0.226085 
O 	 -2.383538 	 3.668494 	 -1.850603 
O 	 3.689404 	 -5.994977 	 5.622276 
O 	 5.812332 	 -0.770643 	 1.272088 
O 	 3.214451 	 -5.107472 	 -0.005209 
O 	 1.751912 	 0.996911 	 6.003600 
O 	 5.624657 	 6.691857 	 -6.518253 
O 	 -5.264475 	 2.562835 	 3.689603 
O 	 3.974658 	 6.642751 	 2.747017 
O 	 3.931186 	 4.285602 	 4.111334 
O 	 2.840215 	 -1.550868 	 5.447246 
O 	 0.492477 	 -6.003575 	 -3.448525 
O 	 3.005787 	 -3.698540 	 -4.340763 
O 	 7.108299 	 7.066304 	 3.706827 
O 	 -0.661618 	 -5.361029 	 3.430432 
O 	 -2.197152 	 5.596794 	 4.151066 
O 	 0.179074 	 -1.541058 	 -2.989111 
O 	 0.266347 	 5.753450 	 -2.741035 
O 	 -5.142724 	 -1.901770 	 -2.906252 
O 	 -5.020628 	 6.132945 	 2.723769 
O 	 -0.561750 	 1.994890 	 1.768630 
O 	 -1.556820 	 7.220470 	 -0.659225 
O 	 -7.062614 	 -6.008751 	 7.292906 
O 	 -2.736695 	 -0.947197 	 6.934316 
O 	 3.726517 	 3.912810 	 -5.062520 
O 	 -2.566781 	 0.884993 	 -4.304591 
O 	 -2.081665 	 3.505360 	 -5.199582 
O 	 4.052680 	 -1.203035 	 -1.332612 
O 	 5.139689 	 1.675263 	 2.854878 
O 	 -6.204530 	 -5.863098 	 -1.764889 
O 	 0.899133 	 3.189361 	 -3.570886 
O 	 -0.399785 	 -3.778223 	 1.116528 
O 	 -7.251303 	 -0.904208 	 5.887249 
O 	 -2.412671 	 -2.612102 	 -3.425327 
O 	 -1.339977 	 5.529908 	 -6.947973 
O 	 -4.223685 	 0.593758 	 -6.453505 
O 	 6.889764 	 -2.458842 	 -1.582234 
O 	 3.469057 	 6.763589 	 -4.788177 
O 	 5.468832 	 -3.478135 	 0.802129 
O 	 6.849414 	 -7.047981 	 0.737096 
O 	 6.957305 	 -3.690422 	 3.200784 
O 	 1.349662 	 1.984718 	 -0.965458 
O 	 5.597457 	 -5.270429 	 -1.361743 
O 	 5.997715 	 1.099574 	 -5.164272 
O 	 -1.807495 	 3.452587 	 5.871322 
O 	 -5.562219 	 -4.189338 	 0.480865 
O 	 6.471653 	 2.438901 	 -2.949067 
O 	 2.837031 	 7.082185 	 -1.776547 
O 	 6.222162 	 -5.181752 	 -4.934331 
O 	 2.289072 	 -3.215627 	 -1.780425 
O 	 -1.220515 	 -3.516855 	 5.553833 
O 	 -0.009605 	 -4.714015 	 -5.858021 
O 	 -0.770625 	 1.385536 	 -7.314521 
O 	 -1.929224 	 6.623674 	 -3.998242 
O 	 0.281150 	 0.620597 	 -4.731108 
O 	 -1.576588 	 -5.001426 	 -0.886912 
O 	 2.277586 	 -0.322518 	 1.058273 
O 	 -5.048909 	 5.933841 	 -4.583710 
O 	 6.200912 	 7.059371 	 -3.584862 
O 	 5.064059 	 -1.485703 	 7.089296 
O 	 0.807155 	 4.656649 	 1.020568 
O 	 -0.531105 	 -1.193022 	 4.227536 
K 	 -5.656563 	 1.531375 	 5.942098 
