333
conformation = 59
H 	 -5.948861 	 3.921977 	 0.414396 
H 	 -5.681661 	 5.270166 	 1.397180 
H 	 5.451669 	 0.998491 	 6.213471 
H 	 6.511573 	 0.370692 	 5.390569 
H 	 -4.278496 	 3.870705 	 -6.971172 
H 	 -4.188053 	 5.050325 	 6.848103 
H 	 6.082827 	 4.965946 	 -1.120245 
H 	 -7.360227 	 4.722464 	 -0.849058 
H 	 -5.098609 	 2.620301 	 -3.722027 
H 	 -5.613932 	 2.920449 	 -5.171135 
H 	 -7.620609 	 2.079336 	 -6.063749 
H 	 -7.042081 	 3.506941 	 -6.477983 
H 	 -1.715980 	 0.426644 	 -0.736487 
H 	 -2.625253 	 1.652247 	 -1.122746 
H 	 -5.381920 	 -3.359601 	 -5.906650 
H 	 -3.956658 	 -3.575413 	 -6.355078 
H 	 -1.914291 	 2.002466 	 3.025001 
H 	 -2.202950 	 2.346526 	 4.432181 
H 	 -4.060365 	 -5.329121 	 -6.206961 
H 	 -2.802145 	 -6.194319 	 -6.232726 
H 	 4.179625 	 4.609495 	 0.172164 
H 	 4.007348 	 5.899272 	 -0.688190 
H 	 -1.396838 	 -3.530384 	 -6.220994 
H 	 -2.186449 	 -2.297251 	 -6.706515 
H 	 3.196136 	 -5.703570 	 -6.819867 
H 	 3.059379 	 -5.062325 	 -5.378197 
H 	 -7.210894 	 -3.935932 	 -4.479817 
H 	 -6.250572 	 -2.889771 	 -3.768049 
H 	 1.935670 	 4.915587 	 4.097463 
H 	 0.979449 	 6.156171 	 4.051848 
H 	 7.152001 	 5.638673 	 -5.988055 
H 	 -6.231148 	 5.572966 	 -5.780453 
H 	 4.506938 	 2.758088 	 7.366683 
H 	 3.161331 	 1.884773 	 7.304094 
H 	 -3.433108 	 -0.310285 	 4.836387 
H 	 -4.373918 	 -1.563732 	 4.626682 
H 	 -0.944375 	 -0.998417 	 1.204262 
H 	 -2.400138 	 -1.603437 	 1.480072 
H 	 1.209294 	 -1.970258 	 3.363444 
H 	 2.368300 	 -1.763366 	 2.384985 
H 	 -1.410090 	 6.944117 	 1.321140 
H 	 -1.527806 	 -7.302108 	 2.822093 
H 	 2.640957 	 -4.171619 	 3.163557 
H 	 2.236377 	 -5.655118 	 2.778629 
H 	 -6.041399 	 1.210727 	 0.734915 
H 	 -7.424041 	 1.902951 	 0.286925 
H 	 -4.677351 	 6.378481 	 -2.067473 
H 	 -4.779075 	 5.642908 	 -0.689516 
H 	 2.402225 	 0.230228 	 -3.731259 
H 	 2.577758 	 1.067804 	 -2.416857 
H 	 1.770028 	 4.800665 	 -6.449729 
H 	 0.843966 	 5.748389 	 -7.101324 
H 	 -0.048812 	 -6.825160 	 6.545210 
H 	 -1.057712 	 -7.539444 	 -7.248725 
H 	 2.391218 	 6.765069 	 1.861135 
H 	 0.881369 	 7.099972 	 1.877749 
H 	 -6.691688 	 -6.676204 	 4.501624 
H 	 -6.259452 	 -6.333697 	 5.905451 
H 	 -6.008885 	 -1.093320 	 2.034761 
H 	 -6.502531 	 -0.439929 	 3.312128 
H 	 5.083050 	 5.267608 	 7.388015 
H 	 6.078287 	 4.490181 	 6.391695 
H 	 -6.778339 	 -1.405554 	 -4.967986 
H 	 -7.174527 	 0.148532 	 -5.106862 
H 	 7.063236 	 3.644028 	 3.617269 
H 	 6.222559 	 2.874654 	 2.646208 
H 	 -6.006907 	 -4.147306 	 5.056811 
H 	 -5.358029 	 -3.659678 	 6.293760 
H 	 -4.357023 	 0.925255 	 -2.093628 
H 	 -5.727064 	 1.634151 	 -1.723722 
H 	 5.570524 	 0.901087 	 0.263329 
H 	 4.875480 	 2.229422 	 0.186205 
H 	 -3.775181 	 0.274410 	 2.103124 
H 	 -3.789846 	 0.366229 	 0.512424 
H 	 1.385615 	 2.225243 	 3.173202 
H 	 2.369788 	 1.082499 	 2.732975 
H 	 2.368064 	 -1.934575 	 -5.562485 
H 	 1.585090 	 -1.538265 	 -6.915437 
H 	 5.339813 	 -3.666790 	 7.010553 
H 	 5.154948 	 -5.006907 	 6.265069 
H 	 0.681431 	 -6.577536 	 4.492369 
H 	 1.881942 	 -6.667630 	 5.489300 
H 	 5.329547 	 -1.068638 	 -4.667206 
H 	 6.067291 	 -2.376205 	 -4.433180 
H 	 -3.690039 	 -6.169387 	 -3.830531 
H 	 -2.932130 	 -6.177869 	 -2.451181 
H 	 -6.863838 	 5.039983 	 6.572649 
H 	 -7.027570 	 5.742480 	 5.253295 
H 	 0.947157 	 -3.917717 	 -7.165709 
H 	 0.494286 	 -3.513453 	 6.283687 
H 	 3.382012 	 2.555449 	 1.597557 
H 	 2.472039 	 3.623534 	 1.230369 
H 	 -4.557481 	 7.093583 	 5.282123 
H 	 -3.205490 	 6.452549 	 5.766648 
H 	 -2.421450 	 -6.110409 	 6.587279 
H 	 -3.778649 	 -5.578475 	 5.774294 
H 	 1.415013 	 -0.396432 	 0.644184 
H 	 -0.120436 	 -0.840962 	 -0.728588 
H 	 -4.225348 	 -2.847933 	 0.279714 
H 	 -3.359384 	 -2.213077 	 -0.808022 
H 	 -1.562574 	 4.162276 	 -1.751385 
H 	 -3.082544 	 4.454048 	 -1.836267 
H 	 4.419738 	 -6.762379 	 5.771693 
H 	 3.775302 	 -5.928764 	 4.669179 
H 	 5.503050 	 -1.755843 	 1.197532 
H 	 6.602656 	 -0.684352 	 1.606488 
H 	 3.960456 	 -4.737745 	 0.699134 
H 	 2.978253 	 -5.990803 	 0.604786 
H 	 2.376162 	 0.079519 	 6.026922 
H 	 1.804994 	 1.268195 	 5.191363 
H 	 5.818451 	 -7.413950 	 -6.839970 
H 	 4.990154 	 6.665620 	 -5.754560 
H 	 -5.904494 	 2.968950 	 3.114388 
H 	 -4.457409 	 2.658167 	 3.430515 
H 	 4.032120 	 5.782270 	 3.406389 
H 	 4.353326 	 6.392173 	 2.006597 
H 	 4.212519 	 3.397109 	 3.886006 
H 	 4.276055 	 4.350205 	 5.116698 
H 	 2.772244 	 -1.895037 	 4.672493 
H 	 2.417283 	 -2.219901 	 6.165687 
H 	 0.047527 	 -5.488976 	 -2.570000 
H 	 -0.151579 	 -6.663289 	 -3.369576 
H 	 3.833235 	 -3.240463 	 -4.316199 
H 	 2.686470 	 -3.820281 	 -3.323175 
H 	 6.991052 	 -7.551991 	 2.952780 
H 	 6.068287 	 7.084700 	 4.022629 
H 	 -0.950916 	 -4.743587 	 4.280460 
H 	 -0.712593 	 -4.762332 	 2.737733 
H 	 -1.708827 	 5.841909 	 3.641662 
H 	 -1.662756 	 4.665610 	 4.761180 
H 	 -0.749459 	 -1.936104 	 -2.886841 
H 	 0.769226 	 -2.322008 	 -2.432928 
H 	 0.913770 	 6.110293 	 -2.092791 
H 	 0.723178 	 4.808635 	 -2.907015 
H 	 -4.323734 	 -1.943873 	 -3.149687 
H 	 -5.290011 	 -0.801722 	 -2.995106 
H 	 -5.430891 	 6.599428 	 3.580565 
H 	 -4.104163 	 5.787047 	 3.260670 
H 	 -0.125173 	 1.232200 	 1.175553 
H 	 -0.258000 	 2.778013 	 1.304488 
H 	 -2.447622 	 6.885344 	 -0.900534 
H 	 -1.638984 	 -6.824312 	 -0.539788 
H 	 7.198689 	 -5.292833 	 7.052374 
H 	 -6.538526 	 -5.826339 	 -6.805890 
H 	 -1.768356 	 -0.529061 	 7.124655 
H 	 -3.225180 	 -0.539233 	 -7.234004 
H 	 3.568067 	 3.169495 	 -5.612222 
H 	 3.045470 	 3.589696 	 -4.233149 
H 	 -1.675386 	 0.756365 	 -4.487825 
H 	 -2.460892 	 0.859208 	 -3.169728 
H 	 -1.623971 	 3.662598 	 -4.283681 
H 	 -3.038556 	 3.435251 	 -4.823795 
H 	 4.994301 	 -1.499697 	 -1.494702 
H 	 3.832480 	 -0.626508 	 -2.082691 
H 	 5.313535 	 0.804473 	 2.474819 
H 	 5.187062 	 1.419685 	 3.896918 
H 	 -5.396131 	 -5.922890 	 -1.947547 
H 	 -6.552985 	 -6.709260 	 -1.114258 
H 	 0.994925 	 2.525135 	 -2.723333 
H 	 0.511628 	 2.676263 	 -4.287699 
H 	 -0.816608 	 -2.976139 	 1.458876 
H 	 0.665228 	 -3.583761 	 1.423524 
H 	 -6.611044 	 -1.896018 	 5.766298 
H 	 6.957720 	 -1.403138 	 6.314259 
H 	 -2.346932 	 -2.539659 	 -4.317329 
H 	 -2.479961 	 -3.676452 	 -3.335278 
H 	 -1.190673 	 5.161383 	 7.120588 
H 	 -1.921019 	 4.735537 	 -6.480168 
H 	 -4.815747 	 0.113233 	 -5.758629 
H 	 -3.587021 	 1.007063 	 -5.787597 
H 	 -7.099325 	 -2.237014 	 -1.997915 
H 	 6.670343 	 -3.364512 	 -1.699474 
H 	 3.297912 	 -7.265187 	 -5.059570 
H 	 2.987786 	 6.156108 	 -4.981900 
H 	 5.880358 	 -3.819814 	 1.903789 
H 	 6.220020 	 -3.487548 	 0.342887 
H 	 6.458610 	 -6.125419 	 0.312142 
H 	 6.623128 	 -7.663275 	 0.082738 
H 	 7.186955 	 -2.850273 	 3.277376 
H 	 6.342458 	 -3.894505 	 4.077211 
H 	 1.925813 	 2.162562 	 -0.194818 
H 	 0.893509 	 1.057689 	 -0.674428 
H 	 4.603434 	 -5.134459 	 -1.027478 
H 	 5.564505 	 -6.041697 	 -1.718028 
H 	 5.279538 	 1.278184 	 -5.558751 
H 	 6.121157 	 1.750552 	 -4.251520 
H 	 -1.336384 	 2.653335 	 6.596959 
H 	 -2.637088 	 3.513627 	 6.228427 
H 	 -5.893652 	 -4.873338 	 1.346863 
H 	 -5.765607 	 -4.849106 	 -0.215418 
H 	 6.036090 	 1.828371 	 -2.150933 
H 	 6.697159 	 3.237405 	 -2.395580 
H 	 2.669668 	 6.904853 	 -2.781609 
H 	 2.756902 	 -6.870680 	 -1.649222 
H 	 6.338492 	 -6.077795 	 -4.372629 
H 	 5.401840 	 -5.189916 	 -5.236230 
H 	 2.980175 	 -2.659331 	 -1.444939 
H 	 2.449106 	 -4.048569 	 -1.026230 
H 	 -2.084361 	 -3.969809 	 6.084923 
H 	 -1.518096 	 -2.726790 	 5.303273 
H 	 -0.222423 	 -5.574180 	 -6.249661 
H 	 0.211071 	 -5.023439 	 -4.843397 
H 	 -0.813336 	 1.875293 	 -6.364785 
H 	 0.108851 	 1.168223 	 7.331572 
H 	 -1.167735 	 6.156554 	 -3.331009 
H 	 -1.690206 	 6.637796 	 -4.688406 
H 	 0.158402 	 -0.240693 	 -3.850545 
H 	 0.718990 	 -0.081728 	 -5.237101 
H 	 -2.288155 	 -4.566274 	 -0.690334 
H 	 -0.877551 	 -4.833020 	 -0.132718 
H 	 2.878018 	 -0.518298 	 0.214620 
H 	 -1.027221 	 -1.200569 	 3.505779 
H 	 -4.165767 	 6.364769 	 -4.523311 
H 	 -4.739865 	 4.940902 	 -4.441971 
H 	 6.442350 	 6.066505 	 -3.037431 
H 	 5.321615 	 6.736278 	 -3.689547 
H 	 4.320398 	 -1.346524 	 -7.040960 
H 	 4.501588 	 -1.436972 	 6.419859 
H 	 0.829712 	 4.807346 	 1.998395 
H 	 0.931703 	 5.411803 	 0.545871 
H 	 -0.711222 	 -0.256975 	 4.622116 
O 	 -5.827847 	 4.891511 	 0.485629 
O 	 6.068058 	 1.215694 	 5.453475 
O 	 -4.032025 	 4.085052 	 7.030720 
O 	 6.955449 	 4.871048 	 -1.600473 
O 	 -4.967471 	 3.199105 	 -4.499539 
O 	 -6.870787 	 2.524873 	 -6.558729 
O 	 -2.620917 	 0.684306 	 -1.009130 
O 	 -4.861641 	 -3.858830 	 -6.581920 
O 	 -2.698414 	 2.155276 	 3.641335 
O 	 -3.647233 	 -6.107116 	 -5.734963 
O 	 4.579755 	 5.460518 	 -0.038583 
O 	 -2.196623 	 -3.008571 	 -6.000367 
O 	 3.537724 	 -5.741353 	 -5.914675 
O 	 -6.759430 	 -3.071581 	 -4.594417 
O 	 1.043133 	 5.185398 	 3.881741 
O 	 -6.946404 	 5.292846 	 -6.395093 
O 	 3.985266 	 2.048840 	 -7.135189 
O 	 -4.250667 	 -0.619043 	 4.376539 
O 	 -1.523271 	 -1.590279 	 1.901713 
O 	 2.014207 	 -2.411581 	 3.046768 
O 	 -1.098162 	 6.906072 	 2.265976 
O 	 2.956542 	 -5.114595 	 3.217337 
O 	 -6.436826 	 1.914251 	 0.224940 
O 	 -4.140711 	 5.952893 	 -1.351897 
O 	 3.049167 	 0.677803 	 -3.183599 
O 	 1.797100 	 5.582841 	 -7.000858 
O 	 -0.787039 	 -6.659032 	 7.235156 
O 	 1.682381 	 -7.653909 	 1.329525 
O 	 -5.916211 	 -6.366875 	 4.991802 
O 	 -6.818301 	 -0.964777 	 2.536201 
O 	 5.179480 	 4.495286 	 6.796687 
O 	 -6.464059 	 -0.537404 	 -5.307237 
O 	 6.920230 	 3.578714 	 2.661227 
O 	 -5.628023 	 -3.329988 	 5.429476 
O 	 -5.195021 	 1.175059 	 -2.462351 
O 	 5.522306 	 1.683298 	 -0.239634 
O 	 -4.387068 	 0.439709 	 1.317045 
O 	 2.290937 	 1.872926 	 3.292628 
O 	 1.814650 	 -1.261277 	 -5.976073 
O 	 5.785900 	 -4.236689 	 6.332257 
O 	 1.078529 	 -7.136935 	 5.191182 
O 	 5.212953 	 -2.013246 	 -4.490673 
O 	 -3.562343 	 -5.690285 	 -2.982767 
O 	 -7.254586 	 4.894639 	 5.677626 
O 	 1.242030 	 -3.427765 	 6.891467 
O 	 3.232623 	 3.122907 	 0.855687 
O 	 -4.094534 	 6.793038 	 6.088675 
O 	 -2.973069 	 -5.334759 	 6.284481 
O 	 -0.248144 	 -0.258342 	 0.045675 
O 	 -3.298701 	 -2.880054 	 -0.114698 
O 	 -2.425296 	 3.704016 	 -1.836658 
O 	 3.694917 	 -6.049550 	 5.643562 
O 	 5.629827 	 -0.827054 	 1.324843 
O 	 3.255200 	 -5.154678 	 0.100373 
O 	 1.804500 	 0.901495 	 6.176226 
O 	 5.692615 	 6.608789 	 -6.486347 
O 	 -5.363967 	 2.628924 	 3.797520 
O 	 3.892263 	 6.612918 	 2.852532 
O 	 3.877067 	 4.243376 	 4.195461 
O 	 2.905114 	 -1.555984 	 5.558639 
O 	 0.534104 	 -5.975440 	 -3.256523 
O 	 2.970934 	 -3.676973 	 -4.279521 
O 	 7.014511 	 6.936309 	 3.848935 
O 	 -0.671105 	 -5.308737 	 3.539819 
O 	 -2.195013 	 5.458985 	 4.393324 
O 	 0.212542 	 -1.638803 	 -2.873516 
O 	 0.285963 	 5.637145 	 -2.672538 
O 	 -5.183673 	 -1.758092 	 -2.714555 
O 	 -4.979273 	 6.066640 	 2.893890 
O 	 -0.431993 	 1.948045 	 1.804855 
O 	 -1.516118 	 7.120763 	 -0.607379 
O 	 -7.151443 	 -6.053886 	 7.365477 
O 	 -2.601948 	 -1.017997 	 7.047166 
O 	 3.600204 	 3.930719 	 -4.950562 
O 	 -2.591536 	 0.868546 	 -4.163864 
O 	 -2.090284 	 3.415426 	 -5.105458 
O 	 4.052998 	 -1.286567 	 -1.353933 
O 	 5.087004 	 1.676588 	 2.930703 
O 	 -6.324402 	 -5.894232 	 -1.646687 
O 	 0.819288 	 3.179346 	 -3.486177 
O 	 -0.265320 	 -3.806092 	 1.232986 
O 	 -7.202218 	 -1.079246 	 5.801992 
O 	 -2.543034 	 -2.689625 	 -3.393824 
O 	 -1.311778 	 5.424832 	 -6.838893 
O 	 -4.194362 	 0.585870 	 -6.387750 
O 	 6.960351 	 -2.455916 	 -1.456025 
O 	 3.528401 	 6.838232 	 -4.571288 
O 	 5.534421 	 -3.522514 	 1.028527 
O 	 6.734879 	 -6.973042 	 0.784989 
O 	 6.865839 	 -3.769571 	 3.286004 
O 	 1.373068 	 1.874438 	 -0.945200 
O 	 5.554759 	 -5.154716 	 -1.257396 
O 	 6.061666 	 1.054972 	 -5.014120 
O 	 -1.652276 	 3.336580 	 5.907526 
O 	 -5.602282 	 -4.266533 	 0.612041 
O 	 6.387962 	 2.451391 	 -2.866130 
O 	 2.714965 	 7.043054 	 -1.788063 
O 	 6.255766 	 -5.202461 	 -4.777296 
O 	 2.296477 	 -3.361042 	 -1.706423 
O 	 -1.255239 	 -3.599935 	 5.620275 
O 	 0.082857 	 -4.766380 	 -5.766770 
O 	 -0.806696 	 1.356062 	 -7.180392 
O 	 -1.947067 	 6.565396 	 -3.757426 
O 	 0.244616 	 0.474631 	 -4.572872 
O 	 -1.482700 	 -5.123594 	 -0.892638 
O 	 2.334852 	 -0.320640 	 1.002863 
O 	 -4.999828 	 5.881384 	 -4.492682 
O 	 6.194859 	 6.934905 	 -3.378897 
O 	 5.043830 	 -1.525115 	 7.187094 
O 	 0.843629 	 4.604728 	 1.062908 
O 	 -0.637070 	 -1.183739 	 4.424633 
K 	 -5.693240 	 1.462671 	 6.052512 
