333
conformation = 7
H 	 -6.184380 	 3.995759 	 0.733476 
H 	 -5.550537 	 5.312717 	 1.345503 
H 	 5.363370 	 1.378683 	 5.991340 
H 	 6.328879 	 0.234565 	 5.480570 
H 	 -3.797820 	 4.234636 	 -6.602999 
H 	 -4.137003 	 4.949088 	 7.017842 
H 	 6.339057 	 4.985306 	 -0.842283 
H 	 -6.995455 	 5.125276 	 -0.708689 
H 	 -5.023061 	 2.537888 	 -3.806875 
H 	 -5.528447 	 2.929695 	 -5.240283 
H 	 -7.491421 	 2.166415 	 -5.893071 
H 	 -6.987475 	 3.487812 	 -6.469010 
H 	 -1.593486 	 0.454519 	 -0.933180 
H 	 -2.143213 	 1.874241 	 -1.192489 
H 	 -5.489697 	 -3.536553 	 -5.897873 
H 	 -3.934190 	 -3.294521 	 -6.379678 
H 	 -1.826263 	 2.246264 	 2.995617 
H 	 -2.264105 	 2.956920 	 4.279789 
H 	 -3.950888 	 -5.599421 	 -6.215491 
H 	 -2.632925 	 -6.473396 	 -5.961403 
H 	 4.284123 	 4.988206 	 0.359900 
H 	 3.961677 	 6.152718 	 -0.566607 
H 	 -1.484313 	 -3.690270 	 -5.915715 
H 	 -2.053011 	 -2.328687 	 -6.692276 
H 	 3.263052 	 -5.529158 	 -6.778482 
H 	 3.074036 	 -5.004672 	 -5.260900 
H 	 -7.319101 	 -4.068245 	 -4.469997 
H 	 -6.303644 	 -3.042645 	 -3.566664 
H 	 2.217990 	 4.955329 	 4.398620 
H 	 0.973593 	 5.932178 	 4.559356 
H 	 7.154393 	 5.597200 	 -6.328735 
H 	 -6.385950 	 5.543660 	 -5.571396 
H 	 4.275687 	 3.057755 	 7.222012 
H 	 3.279238 	 1.762006 	 7.183803 
H 	 -3.565080 	 -0.766846 	 5.155432 
H 	 -4.896721 	 -1.447311 	 4.604991 
H 	 -0.924318 	 -0.901839 	 0.995654 
H 	 -2.329652 	 -1.655704 	 1.182083 
H 	 0.948272 	 -2.051438 	 3.328125 
H 	 2.041201 	 -1.642766 	 2.333894 
H 	 -1.330996 	 -7.633418 	 1.179479 
H 	 -0.999869 	 -7.026805 	 2.627472 
H 	 2.354006 	 -4.349736 	 2.995936 
H 	 2.494552 	 -5.916628 	 2.720847 
H 	 -6.026986 	 1.541290 	 0.961276 
H 	 -7.490460 	 1.970825 	 0.257112 
H 	 -4.556399 	 5.888651 	 -2.387955 
H 	 -4.714215 	 5.632231 	 -0.834476 
H 	 2.720653 	 1.061749 	 -3.798767 
H 	 2.195835 	 1.170726 	 -2.340653 
H 	 2.183356 	 4.800192 	 -6.810270 
H 	 1.028286 	 5.692175 	 -7.180907 
H 	 -0.171791 	 -6.863081 	 6.536062 
H 	 -0.991814 	 -7.578027 	 -7.404831 
H 	 2.289282 	 6.817875 	 1.988934 
H 	 0.907976 	 7.214337 	 1.541179 
H 	 -6.312953 	 -6.433857 	 4.278236 
H 	 -6.402929 	 -6.011930 	 5.781537 
H 	 -6.181221 	 -0.830649 	 2.053873 
H 	 -6.467349 	 -0.313782 	 3.520839 
H 	 5.138879 	 5.440990 	 7.301440 
H 	 5.976731 	 4.325964 	 6.535240 
H 	 -6.533063 	 -1.466872 	 -5.515645 
H 	 -7.225351 	 -0.089926 	 -5.432509 
H 	 6.938442 	 3.975724 	 3.560664 
H 	 6.646557 	 3.050161 	 2.473250 
H 	 -5.484811 	 -4.145322 	 5.174140 
H 	 -5.108419 	 -3.325273 	 6.451134 
H 	 -4.678504 	 1.050310 	 -1.733200 
H 	 -6.097948 	 1.385981 	 -1.853748 
H 	 5.377810 	 0.725832 	 -0.043580 
H 	 4.783660 	 2.133445 	 0.080643 
H 	 -3.966299 	 0.550375 	 2.251578 
H 	 -3.624136 	 0.703686 	 0.764675 
H 	 1.357008 	 1.740343 	 2.958799 
H 	 2.828165 	 1.174037 	 3.061960 
H 	 1.556520 	 -1.561642 	 -5.239267 
H 	 1.644247 	 -1.926859 	 -6.659612 
H 	 5.831604 	 -2.982798 	 6.457907 
H 	 5.040241 	 -4.233639 	 6.380321 
H 	 0.406716 	 -6.407811 	 4.293387 
H 	 1.686557 	 -6.559661 	 5.354747 
H 	 5.309938 	 -0.730830 	 -4.390803 
H 	 5.972488 	 -2.137431 	 -4.204656 
H 	 -3.645815 	 -5.255240 	 -3.979666 
H 	 -3.059019 	 -6.230564 	 -2.884182 
H 	 -6.831639 	 5.192343 	 6.319749 
H 	 -7.353141 	 5.518703 	 4.882591 
H 	 1.491711 	 -4.066021 	 -7.080641 
H 	 0.616270 	 -3.616316 	 6.721175 
H 	 3.532697 	 2.992486 	 1.913242 
H 	 2.392990 	 3.736038 	 1.121074 
H 	 -4.865021 	 -7.639686 	 5.830755 
H 	 -3.590321 	 6.641429 	 5.082226 
H 	 -2.354947 	 -5.901702 	 6.689144 
H 	 -3.596707 	 -5.995928 	 5.744193 
H 	 1.393707 	 -0.297079 	 0.774306 
H 	 0.078451 	 -0.767042 	 -0.764184 
H 	 -3.888776 	 -3.446280 	 0.293719 
H 	 -4.042550 	 -2.331777 	 -0.589283 
H 	 -1.564044 	 4.242939 	 -1.838703 
H 	 -3.022837 	 4.122873 	 -1.345404 
H 	 4.218831 	 -6.734090 	 5.277159 
H 	 3.490449 	 -5.370194 	 5.034938 
H 	 5.427257 	 -1.573825 	 1.270397 
H 	 6.730375 	 -0.836310 	 1.851882 
H 	 3.858107 	 -4.636253 	 0.562855 
H 	 2.769215 	 -5.633349 	 0.793218 
H 	 1.986704 	 0.123957 	 6.021085 
H 	 1.753780 	 1.318858 	 5.129395 
H 	 6.204951 	 -7.371042 	 -6.247618 
H 	 4.934476 	 6.736394 	 -5.699788 
H 	 -5.704776 	 3.025929 	 3.099690 
H 	 -4.203369 	 2.537936 	 3.444840 
H 	 4.143407 	 5.705538 	 2.977595 
H 	 4.408607 	 6.784100 	 1.921413 
H 	 3.649246 	 3.325380 	 4.236748 
H 	 4.283730 	 4.467863 	 5.126939 
H 	 2.851189 	 -1.740409 	 4.534323 
H 	 2.345405 	 -2.363866 	 5.845960 
H 	 -0.110846 	 -5.631890 	 -2.802044 
H 	 0.434793 	 -7.024686 	 -3.327108 
H 	 3.762015 	 -2.967912 	 -4.352127 
H 	 2.820712 	 -3.743602 	 -3.302587 
H 	 -7.357735 	 6.744212 	 2.885441 
H 	 6.197660 	 7.161049 	 3.547892 
H 	 -0.804995 	 -4.809413 	 4.233236 
H 	 -0.350481 	 -4.829151 	 2.709654 
H 	 -1.683365 	 6.312184 	 3.574417 
H 	 -1.522636 	 5.096326 	 4.568272 
H 	 -0.568250 	 -2.057732 	 -3.165161 
H 	 0.836378 	 -2.060705 	 -2.502957 
H 	 1.204523 	 6.187816 	 -2.384072 
H 	 0.558032 	 5.289150 	 -3.445571 
H 	 -4.129997 	 -2.081681 	 -3.213964 
H 	 -5.349799 	 -1.128496 	 -3.142568 
H 	 -5.334591 	 6.599424 	 3.573900 
H 	 -4.405711 	 5.474619 	 3.121162 
H 	 -0.826859 	 1.364560 	 1.215008 
H 	 -0.246803 	 2.815994 	 1.478999 
H 	 -2.414949 	 6.815115 	 -0.887306 
H 	 -1.729977 	 -6.672725 	 -0.539868 
H 	 7.194644 	 -5.337697 	 7.342870 
H 	 -6.381410 	 -5.567867 	 -6.873217 
H 	 -2.126038 	 -0.189291 	 6.927366 
H 	 -3.416554 	 -0.552101 	 -7.219544 
H 	 3.781443 	 3.098475 	 -5.556705 
H 	 3.551274 	 3.528369 	 -4.138275 
H 	 -1.608505 	 0.572903 	 -4.308678 
H 	 -2.651566 	 0.809203 	 -3.227615 
H 	 -1.466051 	 3.166898 	 -4.411106 
H 	 -2.708498 	 2.831991 	 -5.034591 
H 	 5.000804 	 -1.553016 	 -1.284271 
H 	 4.021582 	 -0.454935 	 -1.858925 
H 	 5.528375 	 0.774164 	 2.476732 
H 	 5.355985 	 1.570270 	 3.824866 
H 	 -5.324755 	 -5.596796 	 -2.295914 
H 	 -5.898816 	 -6.686748 	 -1.265100 
H 	 1.000398 	 2.998389 	 -2.477279 
H 	 0.898027 	 2.243369 	 -3.839624 
H 	 -0.738864 	 -2.896863 	 1.542453 
H 	 0.521680 	 -3.615278 	 0.957326 
H 	 -6.730001 	 -1.624776 	 5.833995 
H 	 7.166645 	 -0.980972 	 6.898067 
H 	 -2.356186 	 -2.742136 	 -4.262253 
H 	 -2.377517 	 -3.542281 	 -2.956102 
H 	 -1.551984 	 4.843720 	 7.468118 
H 	 -1.050510 	 5.059999 	 -6.083564 
H 	 -5.046636 	 0.029992 	 -6.175050 
H 	 -3.733284 	 0.453105 	 -5.519599 
H 	 -7.151156 	 -2.315899 	 -1.109279 
H 	 6.919572 	 -3.451567 	 -1.739328 
H 	 3.165617 	 -7.314525 	 -5.198739 
H 	 3.026165 	 5.927359 	 -5.150484 
H 	 6.137646 	 -3.554814 	 1.495166 
H 	 5.984976 	 -3.396687 	 0.062564 
H 	 6.531594 	 -6.618105 	 0.183896 
H 	 6.554462 	 6.837023 	 0.797243 
H 	 -7.172259 	 -2.941860 	 3.296920 
H 	 6.877784 	 -3.645706 	 4.286273 
H 	 2.056525 	 2.035723 	 -0.202570 
H 	 0.692078 	 1.393262 	 -0.533644 
H 	 4.816810 	 -5.667015 	 -1.230700 
H 	 5.953349 	 -5.757603 	 -2.273610 
H 	 5.217795 	 1.328916 	 -5.706605 
H 	 5.989759 	 1.622610 	 -4.337564 
H 	 -1.403803 	 2.722822 	 6.239960 
H 	 -2.848719 	 3.451131 	 6.462376 
H 	 -5.461334 	 -4.903258 	 1.191986 
H 	 -5.860567 	 -4.749522 	 -0.258538 
H 	 6.223070 	 2.367026 	 -1.922131 
H 	 6.847026 	 3.322019 	 -2.776506 
H 	 3.397252 	 -7.519008 	 -2.456488 
H 	 2.598545 	 -7.093208 	 -1.094737 
H 	 6.441327 	 -6.156815 	 -4.536429 
H 	 5.320057 	 -5.252441 	 -5.209766 
H 	 2.974730 	 -2.477609 	 -1.404175 
H 	 2.352607 	 -3.893797 	 -1.056675 
H 	 -1.935478 	 -3.813066 	 6.041544 
H 	 -1.191421 	 -2.514952 	 5.321123 
H 	 -0.272961 	 -5.470697 	 -6.395517 
H 	 0.232135 	 -5.074578 	 -4.930140 
H 	 -0.731116 	 1.518450 	 -6.373717 
H 	 0.274219 	 1.275766 	 7.392082 
H 	 -1.228480 	 6.415120 	 -3.382211 
H 	 -1.470339 	 6.538597 	 -4.896449 
H 	 0.387759 	 -0.025439 	 -3.995315 
H 	 0.862374 	 0.270044 	 -5.410052 
H 	 -2.269723 	 -4.312350 	 -1.173345 
H 	 -1.122610 	 -4.405679 	 -0.116377 
H 	 2.904154 	 -0.719923 	 0.655879 
H 	 -0.963766 	 -1.014348 	 3.414534 
H 	 -4.153846 	 6.290875 	 -4.724887 
H 	 -4.918734 	 4.966080 	 -4.419309 
H 	 6.855376 	 6.852107 	 -2.850765 
H 	 5.724986 	 6.350514 	 -3.779897 
H 	 5.087785 	 -1.714759 	 -6.699674 
H 	 4.169908 	 -1.405783 	 6.869739 
H 	 0.800328 	 5.147827 	 1.993465 
H 	 0.633276 	 5.292227 	 0.519858 
H 	 -0.025346 	 -0.405855 	 4.592339 
O 	 -5.766385 	 4.872566 	 0.504984 
O 	 6.020946 	 1.162054 	 5.313887 
O 	 -4.118947 	 4.041865 	 7.396109 
O 	 7.181662 	 4.993500 	 -1.390294 
O 	 -4.804553 	 3.125161 	 -4.567403 
O 	 -6.795823 	 2.516314 	 -6.545328 
O 	 -2.442874 	 0.939215 	 -1.087301 
O 	 -4.826053 	 -3.696948 	 -6.610664 
O 	 -2.579821 	 2.221793 	 3.642645 
O 	 -3.508409 	 -6.208613 	 -5.604028 
O 	 4.731674 	 5.758993 	 -0.064693 
O 	 -2.135796 	 -2.929621 	 -5.913990 
O 	 3.444919 	 -5.721434 	 -5.830469 
O 	 -6.734928 	 -3.297653 	 -4.432505 
O 	 1.264539 	 5.061003 	 4.161289 
O 	 -6.804941 	 5.193647 	 -6.414012 
O 	 4.012044 	 2.179372 	 -7.215589 
O 	 -4.287508 	 -0.677575 	 4.475563 
O 	 -1.454612 	 -1.489530 	 1.691942 
O 	 1.797295 	 -2.375672 	 2.951715 
O 	 -0.864867 	 7.095260 	 2.049500 
O 	 3.026132 	 -5.072962 	 2.963420 
O 	 -6.498000 	 1.952471 	 0.153887 
O 	 -4.139886 	 6.112312 	 -1.505462 
O 	 2.951341 	 0.765806 	 -2.912002 
O 	 1.986686 	 5.710887 	 -6.976305 
O 	 -0.766274 	 -6.669971 	 7.290230 
O 	 1.865618 	 -7.515126 	 1.333122 
O 	 -5.774004 	 -6.130370 	 5.022100 
O 	 -6.700742 	 -0.995874 	 2.846343 
O 	 5.057580 	 4.528934 	 6.821567 
O 	 -6.382233 	 -0.508475 	 -5.349588 
O 	 7.279785 	 3.777949 	 2.676260 
O 	 -5.459393 	 -3.234295 	 5.551938 
O 	 -5.364075 	 1.093391 	 -2.401302 
O 	 5.558847 	 1.682096 	 -0.275249 
O 	 -4.345433 	 0.434048 	 1.350995 
O 	 2.166244 	 1.746440 	 3.537882 
O 	 1.990207 	 -1.263585 	 -6.013079 
O 	 5.983894 	 -3.944385 	 6.357189 
O 	 0.868888 	 -6.947889 	 5.050276 
O 	 5.165797 	 -1.736476 	 -4.514754 
O 	 -3.491229 	 -5.359335 	 -3.003741 
O 	 -7.276130 	 4.771226 	 5.533206 
O 	 1.559612 	 -3.483123 	 7.054147 
O 	 3.256332 	 3.197140 	 1.009180 
O 	 -4.025451 	 6.792772 	 5.898987 
O 	 -3.015537 	 -5.363830 	 6.238267 
O 	 -0.110732 	 -0.213567 	 0.021406 
O 	 -3.327924 	 -2.851776 	 -0.183669 
O 	 -2.295269 	 3.611076 	 -1.719101 
O 	 3.680440 	 -6.021334 	 5.737149 
O 	 5.875914 	 -0.688672 	 1.364651 
O 	 3.185786 	 -5.115723 	 0.089502 
O 	 1.740134 	 1.060660 	 6.040616 
O 	 5.593434 	 6.779846 	 -6.409384 
O 	 -5.179578 	 2.485183 	 3.701642 
O 	 4.137125 	 6.662462 	 2.840278 
O 	 3.958260 	 4.245265 	 4.235364 
O 	 2.802812 	 -1.592457 	 5.527333 
O 	 0.504851 	 -6.065755 	 -3.389290 
O 	 3.052420 	 -3.699512 	 -4.247877 
O 	 7.151175 	 7.098942 	 3.719411 
O 	 -0.613166 	 -5.432021 	 3.480785 
O 	 -2.191535 	 5.665900 	 4.106076 
O 	 0.176353 	 -1.491697 	 -2.918090 
O 	 0.332030 	 5.772890 	 -2.608537 
O 	 -5.044487 	 -2.012110 	 -2.839895 
O 	 -5.009797 	 6.164604 	 2.775218 
O 	 -0.601101 	 2.022860 	 1.874296 
O 	 -1.561108 	 7.222698 	 -0.538599 
O 	 -6.966854 	 -6.012957 	 7.413799 
O 	 -2.755453 	 -0.912908 	 6.971711 
O 	 3.841032 	 3.866674 	 -4.972423 
O 	 -2.522205 	 0.848675 	 -4.210385 
O 	 -2.017704 	 3.544876 	 -5.121126 
O 	 4.088227 	 -1.131799 	 -1.174665 
O 	 5.152883 	 1.618930 	 2.877747 
O 	 -6.078103 	 -5.860235 	 -1.717997 
O 	 0.984841 	 3.147905 	 -3.453990 
O 	 -0.387054 	 -3.819489 	 1.249077 
O 	 -7.214630 	 -0.820560 	 6.109281 
O 	 -2.317089 	 -2.583711 	 -3.242727 
O 	 -1.274344 	 5.584745 	 -6.871449 
O 	 -4.241302 	 0.588564 	 -6.363064 
O 	 6.874801 	 -2.503623 	 -1.536924 
O 	 3.453941 	 6.697992 	 -4.771746 
O 	 5.400078 	 -3.490549 	 0.833331 
O 	 6.965322 	 -7.178361 	 0.839244 
O 	 7.053541 	 -3.656034 	 3.302990 
O 	 1.384028 	 2.041738 	 -0.879494 
O 	 5.733747 	 -5.442746 	 -1.355975 
O 	 5.968420 	 1.067833 	 -5.131118 
O 	 -1.885373 	 3.533408 	 6.091123 
O 	 -5.566657 	 -4.177446 	 0.516931 
O 	 6.553623 	 2.389539 	 -2.845587 
O 	 2.963744 	 7.064277 	 -1.618959 
O 	 6.229471 	 -5.230838 	 -4.864139 
O 	 2.301352 	 -3.130033 	 -1.694226 
O 	 -1.126226 	 -3.488766 	 5.644835 
O 	 -0.041203 	 -4.692741 	 -5.812698 
O 	 -0.701209 	 1.368150 	 -7.332773 
O 	 -1.921899 	 6.688359 	 -4.042099 
O 	 0.360429 	 0.676869 	 -4.667440 
O 	 -1.589532 	 -4.954125 	 -0.784508 
O 	 2.266141 	 -0.342929 	 1.296599 
O 	 -5.026503 	 5.969395 	 -4.467337 
O 	 6.221183 	 7.137732 	 -3.550696 
O 	 5.136839 	 -1.480064 	 7.208500 
O 	 0.785879 	 4.571094 	 1.140906 
O 	 -0.396019 	 -1.206360 	 4.224938 
K 	 -5.589503 	 1.564763 	 6.046750 
