333
conformation = 23
H 	 -5.872986 	 3.952495 	 0.551661 
H 	 -5.901709 	 5.460254 	 1.241176 
H 	 5.474992 	 1.021467 	 6.049769 
H 	 6.619918 	 0.421824 	 5.300073 
H 	 -3.922061 	 3.998997 	 -6.751811 
H 	 -4.388807 	 5.004323 	 6.952782 
H 	 6.413284 	 5.081257 	 -0.863719 
H 	 -6.975836 	 5.043904 	 -1.033193 
H 	 -4.928325 	 2.633560 	 -3.817046 
H 	 -5.508000 	 2.770029 	 -5.282921 
H 	 -7.551052 	 2.054167 	 -6.216557 
H 	 -6.997919 	 3.530183 	 -6.506758 
H 	 -1.822635 	 0.348033 	 -0.684902 
H 	 -2.266106 	 1.794728 	 -1.170505 
H 	 -5.424646 	 -3.725773 	 -5.880296 
H 	 -4.037210 	 -3.248648 	 -6.362648 
H 	 -2.009092 	 2.344014 	 2.846212 
H 	 -2.496380 	 3.004206 	 4.159315 
H 	 -3.900891 	 -5.475261 	 -6.395133 
H 	 -2.712005 	 -6.259946 	 -6.097641 
H 	 4.144759 	 4.911226 	 0.265548 
H 	 3.999890 	 6.246633 	 -0.633121 
H 	 -1.366499 	 -3.482522 	 -6.053592 
H 	 -2.119925 	 -2.348258 	 -6.818816 
H 	 3.155618 	 -5.526997 	 -6.848831 
H 	 3.226529 	 -4.965535 	 -5.366147 
H 	 -7.392290 	 -3.888591 	 -4.197514 
H 	 -6.236699 	 -2.844695 	 -3.806115 
H 	 2.115695 	 4.861823 	 4.005579 
H 	 1.110663 	 5.937309 	 4.490640 
H 	 7.233089 	 5.822870 	 -6.499407 
H 	 -6.199868 	 5.658271 	 -5.901618 
H 	 4.199129 	 3.067241 	 7.306560 
H 	 3.191227 	 1.718200 	 7.128536 
H 	 -3.577804 	 -0.562881 	 4.977802 
H 	 -4.570817 	 -1.550075 	 4.471007 
H 	 -1.006147 	 -1.103929 	 0.891399 
H 	 -2.318441 	 -1.888808 	 1.415999 
H 	 0.945546 	 -2.140816 	 3.195892 
H 	 2.041487 	 -1.753022 	 2.205685 
H 	 -1.312886 	 7.089077 	 1.107752 
H 	 -0.955528 	 -6.951439 	 2.439772 
H 	 2.347641 	 -4.334610 	 2.913050 
H 	 2.494593 	 -5.854332 	 2.771241 
H 	 -6.159076 	 1.412627 	 0.851576 
H 	 -7.462590 	 1.897686 	 0.137144 
H 	 -4.600399 	 5.747105 	 -2.321742 
H 	 -4.630814 	 5.682685 	 -0.756812 
H 	 2.618703 	 0.814906 	 -4.020245 
H 	 2.323237 	 1.122740 	 -2.480017 
H 	 1.887049 	 4.740762 	 -6.719823 
H 	 1.015088 	 5.744712 	 7.391255 
H 	 -0.181191 	 -6.550000 	 6.401592 
H 	 -0.975730 	 -7.593833 	 7.395334 
H 	 2.199324 	 6.927364 	 2.077647 
H 	 0.822253 	 -7.455487 	 1.464463 
H 	 -6.537863 	 -6.365521 	 4.252864 
H 	 -6.381027 	 -6.167810 	 5.741652 
H 	 -6.022009 	 -0.914204 	 2.016221 
H 	 -6.571993 	 -0.264809 	 3.249552 
H 	 5.091501 	 5.311385 	 7.340045 
H 	 5.969176 	 4.508193 	 6.277358 
H 	 -6.626749 	 -1.449125 	 -5.442669 
H 	 -7.259611 	 -0.019991 	 -5.261135 
H 	 6.987550 	 3.828031 	 3.548079 
H 	 6.555739 	 2.921550 	 2.391227 
H 	 -5.937986 	 -4.101835 	 5.054755 
H 	 -5.315160 	 -3.602279 	 6.372491 
H 	 -4.475376 	 0.907270 	 -2.085208 
H 	 -5.992622 	 1.289121 	 -1.792170 
H 	 5.350322 	 0.741387 	 -0.052971 
H 	 4.665527 	 2.211795 	 -0.205063 
H 	 -3.905782 	 0.253172 	 2.052064 
H 	 -3.705750 	 0.845771 	 0.641024 
H 	 1.374319 	 1.962274 	 2.910409 
H 	 2.627888 	 1.036841 	 2.932479 
H 	 1.668861 	 -1.694321 	 -5.210887 
H 	 1.601841 	 -1.802818 	 -6.805445 
H 	 5.863577 	 -3.072875 	 6.448128 
H 	 4.947302 	 -4.295414 	 6.192528 
H 	 0.651946 	 -6.219412 	 4.490040 
H 	 1.877759 	 -6.877807 	 5.230610 
H 	 5.335726 	 -0.890468 	 -4.484222 
H 	 5.977639 	 -2.321578 	 -4.238297 
H 	 -3.434017 	 -5.495885 	 -4.089815 
H 	 -3.166409 	 -6.357366 	 -2.840808 
H 	 -6.837297 	 5.278517 	 6.230451 
H 	 -7.405009 	 5.567403 	 4.860205 
H 	 1.362734 	 -3.815529 	 -7.091037 
H 	 0.543442 	 -3.439787 	 6.533039 
H 	 3.418066 	 3.041386 	 1.858243 
H 	 2.390983 	 3.669554 	 0.896446 
H 	 -4.852006 	 -7.502173 	 5.605036 
H 	 -3.589772 	 6.617054 	 4.993007 
H 	 -2.237705 	 -5.973514 	 6.280945 
H 	 -3.761959 	 -5.843588 	 5.859765 
H 	 1.423829 	 -0.341057 	 0.544507 
H 	 -0.094381 	 -0.640946 	 -0.927217 
H 	 -4.057535 	 -3.587064 	 -0.145150 
H 	 -3.746797 	 -2.255299 	 -0.917599 
H 	 -1.664028 	 4.312081 	 -1.947183 
H 	 -3.168530 	 4.248170 	 -1.811804 
H 	 4.006588 	 -6.824798 	 5.286307 
H 	 3.399196 	 -5.682557 	 4.723066 
H 	 5.234687 	 -1.545119 	 1.074247 
H 	 6.489866 	 -1.029744 	 1.905509 
H 	 3.904054 	 -4.636957 	 0.594610 
H 	 2.700315 	 -5.661084 	 0.639462 
H 	 1.972392 	 0.083995 	 5.705646 
H 	 1.996948 	 1.498548 	 5.172586 
H 	 6.105340 	 -7.344201 	 -6.430218 
H 	 4.791826 	 6.793709 	 -5.890670 
H 	 -5.692994 	 3.180174 	 3.028592 
H 	 -4.360114 	 2.350420 	 3.322008 
H 	 3.957665 	 5.656623 	 2.860075 
H 	 4.483992 	 6.830724 	 1.914114 
H 	 3.436241 	 3.423191 	 4.015193 
H 	 4.207898 	 4.316082 	 5.094309 
H 	 2.697632 	 -1.757777 	 4.488297 
H 	 2.323736 	 -2.276332 	 5.940455 
H 	 0.131684 	 -5.658293 	 -2.585830 
H 	 0.198574 	 -6.946528 	 -3.303696 
H 	 3.684597 	 -3.021530 	 -4.390694 
H 	 2.630817 	 -3.717524 	 -3.398789 
H 	 7.206020 	 6.794483 	 2.770172 
H 	 6.123854 	 6.917072 	 3.718778 
H 	 -1.102379 	 -4.744573 	 4.098942 
H 	 -0.514417 	 -4.816796 	 2.615686 
H 	 -1.652521 	 5.787750 	 3.325796 
H 	 -1.667382 	 5.136326 	 4.771765 
H 	 -0.685894 	 -2.018534 	 -3.102321 
H 	 0.913928 	 -2.183614 	 -2.939314 
H 	 1.094583 	 6.089876 	 -2.317334 
H 	 0.600198 	 4.943218 	 -3.201065 
H 	 -4.140015 	 -1.974382 	 -3.009246 
H 	 -5.274232 	 -0.967432 	 -3.098904 
H 	 -5.330816 	 6.665132 	 3.479835 
H 	 -4.398418 	 5.513391 	 3.119421 
H 	 -0.780459 	 1.292738 	 1.106227 
H 	 -0.343510 	 2.789561 	 1.212321 
H 	 -2.356125 	 6.781169 	 -0.965090 
H 	 -1.733792 	 -6.743181 	 -0.939516 
H 	 7.158994 	 -5.347171 	 7.225288 
H 	 -6.262701 	 -5.679836 	 -7.119056 
H 	 -1.989030 	 -0.299193 	 6.941129 
H 	 -3.433684 	 -0.422353 	 -7.469278 
H 	 3.768851 	 3.044861 	 -5.551643 
H 	 3.425977 	 3.648050 	 -4.144849 
H 	 -1.567459 	 0.786469 	 -4.294476 
H 	 -2.822477 	 0.994121 	 -3.383839 
H 	 -1.492330 	 3.244487 	 -4.471136 
H 	 -2.902350 	 3.000369 	 -5.156952 
H 	 4.961780 	 -1.478517 	 -1.457256 
H 	 3.843418 	 -0.581511 	 -2.078980 
H 	 4.881965 	 0.847497 	 2.436329 
H 	 5.455768 	 1.357387 	 3.705562 
H 	 -5.478799 	 -5.908707 	 -2.477637 
H 	 -5.996980 	 -6.592211 	 -1.144251 
H 	 0.821769 	 2.969013 	 -2.632474 
H 	 0.917026 	 2.343943 	 -4.043450 
H 	 -0.870671 	 -2.892567 	 1.316263 
H 	 0.533171 	 -3.600297 	 1.266499 
H 	 -6.767355 	 -1.718199 	 5.692619 
H 	 7.203766 	 -1.157874 	 6.761114 
H 	 -2.440934 	 -2.679288 	 -4.381935 
H 	 -2.708788 	 -3.440360 	 -3.035023 
H 	 -1.382104 	 4.714728 	 7.347010 
H 	 -1.357494 	 5.130024 	 -6.041579 
H 	 -5.119119 	 0.176815 	 -6.231582 
H 	 -3.727857 	 0.579847 	 -5.549274 
H 	 -7.110256 	 -2.179774 	 -1.523653 
H 	 6.870336 	 -3.425129 	 -1.772046 
H 	 3.155977 	 -7.322731 	 -5.240510 
H 	 2.916168 	 6.074051 	 -5.287755 
H 	 5.834454 	 -3.637739 	 1.681973 
H 	 6.074554 	 -3.273325 	 0.051029 
H 	 6.294050 	 -6.624390 	 0.066112 
H 	 6.571246 	 6.920064 	 0.594803 
H 	 -7.407811 	 -2.861691 	 3.074816 
H 	 6.430848 	 -3.639627 	 4.030438 
H 	 2.203263 	 2.264465 	 -0.520674 
H 	 0.866905 	 1.365309 	 -0.340370 
H 	 4.654466 	 -5.587390 	 -1.274796 
H 	 5.860513 	 -5.668916 	 -2.223407 
H 	 5.273518 	 1.418831 	 -5.759316 
H 	 6.027729 	 1.705297 	 -4.326672 
H 	 -1.466407 	 2.687926 	 6.399073 
H 	 -2.746330 	 3.639111 	 6.431664 
H 	 -5.692459 	 -4.950098 	 1.032072 
H 	 -5.965556 	 -4.481878 	 -0.342254 
H 	 6.083523 	 2.098090 	 -2.116029 
H 	 6.555274 	 3.420789 	 -2.917627 
H 	 3.325199 	 -7.582228 	 -2.559352 
H 	 2.528461 	 -7.013264 	 -1.358506 
H 	 6.325622 	 -5.999767 	 -4.410290 
H 	 5.289855 	 -5.251509 	 -5.277175 
H 	 2.949765 	 -2.492625 	 -1.563577 
H 	 2.487798 	 -3.859050 	 -1.068927 
H 	 -2.144593 	 -3.878217 	 5.659707 
H 	 -1.341459 	 -2.618139 	 5.224000 
H 	 -0.251916 	 -5.421266 	 -6.479046 
H 	 0.241097 	 -5.199655 	 -5.038443 
H 	 -0.785311 	 1.468739 	 -6.357685 
H 	 0.094105 	 1.341632 	 7.175836 
H 	 -1.200733 	 6.331711 	 -3.380454 
H 	 -1.566378 	 6.531547 	 -4.915018 
H 	 0.411709 	 -0.089626 	 -4.039111 
H 	 0.587795 	 0.120916 	 -5.532961 
H 	 -2.279715 	 -4.399341 	 -1.131204 
H 	 -1.107545 	 -4.487885 	 -0.196655 
H 	 2.983932 	 -0.130553 	 0.442848 
H 	 -1.071093 	 -0.931442 	 3.467297 
H 	 -4.197032 	 6.413977 	 -4.733212 
H 	 -4.797304 	 4.986557 	 -4.528379 
H 	 6.625440 	 6.459240 	 -2.944119 
H 	 5.447130 	 6.489585 	 -3.918071 
H 	 4.803121 	 -1.561455 	 -6.897107 
H 	 4.221490 	 -1.507239 	 6.601329 
H 	 0.783845 	 5.096393 	 1.879367 
H 	 0.636641 	 5.244653 	 0.261130 
H 	 -0.218631 	 -0.327253 	 4.589464 
O 	 -5.821625 	 4.911695 	 0.433907 
O 	 5.990854 	 1.215031 	 5.238519 
O 	 -4.083321 	 4.075547 	 7.173347 
O 	 7.082838 	 4.945362 	 -1.533202 
O 	 -4.902949 	 3.189423 	 -4.631397 
O 	 -6.852443 	 2.539312 	 -6.637463 
O 	 -2.513052 	 0.841463 	 -1.155642 
O 	 -4.838518 	 -3.732129 	 -6.693307 
O 	 -2.637100 	 2.220929 	 3.574237 
O 	 -3.599698 	 -6.149193 	 -5.731855 
O 	 4.632202 	 5.653102 	 -0.162638 
O 	 -2.183428 	 -2.954191 	 -6.018933 
O 	 3.448793 	 -5.728617 	 -5.946238 
O 	 -6.775534 	 -3.192709 	 -4.573123 
O 	 1.163237 	 5.128091 	 3.985856 
O 	 -6.890163 	 5.234383 	 -6.465113 
O 	 3.969723 	 2.166586 	 -7.276052 
O 	 -4.310386 	 -0.624815 	 4.350687 
O 	 -1.476841 	 -1.514658 	 1.689346 
O 	 1.868144 	 -2.362449 	 2.907857 
O 	 -0.999825 	 7.031349 	 2.072787 
O 	 2.971458 	 -5.064910 	 2.952848 
O 	 -6.501140 	 1.940937 	 0.106959 
O 	 -4.163108 	 6.083646 	 -1.535820 
O 	 2.949712 	 0.758744 	 -3.098109 
O 	 1.893366 	 5.691856 	 -7.060501 
O 	 -0.809875 	 -6.629487 	 7.186237 
O 	 1.785817 	 -7.623665 	 1.245070 
O 	 -5.830289 	 -6.225480 	 4.938772 
O 	 -6.810486 	 -0.964840 	 2.633011 
O 	 5.090415 	 4.553197 	 6.764176 
O 	 -6.400174 	 -0.505710 	 -5.416666 
O 	 7.108910 	 3.709690 	 2.579979 
O 	 -5.526857 	 -3.280671 	 5.415954 
O 	 -5.344427 	 1.154934 	 -2.528907 
O 	 5.521207 	 1.707036 	 -0.336699 
O 	 -4.382823 	 0.471834 	 1.241842 
O 	 2.217102 	 1.802949 	 3.368352 
O 	 1.909831 	 -1.234474 	 -6.096817 
O 	 5.869460 	 -4.044606 	 6.274807 
O 	 0.912890 	 -7.003279 	 4.998596 
O 	 5.153237 	 -1.830371 	 -4.585272 
O 	 -3.533667 	 -5.461550 	 -3.067946 
O 	 -7.288616 	 4.833465 	 5.499041 
O 	 1.444720 	 -3.451319 	 6.895418 
O 	 3.231869 	 3.149204 	 0.871627 
O 	 -4.074385 	 6.835157 	 5.878921 
O 	 -3.004193 	 -5.351692 	 6.171563 
O 	 -0.191333 	 -0.223648 	 -0.050230 
O 	 -3.351410 	 -2.846432 	 -0.227724 
O 	 -2.377665 	 3.656953 	 -1.842880 
O 	 3.686373 	 -6.000724 	 5.631163 
O 	 5.826329 	 -0.755705 	 1.277414 
O 	 3.202346 	 -5.109697 	 -0.000650 
O 	 1.743575 	 1.008266 	 5.993162 
O 	 5.610108 	 6.702030 	 -6.513137 
O 	 -5.254190 	 2.548099 	 3.682875 
O 	 3.990947 	 6.643933 	 2.748415 
O 	 3.931516 	 4.283185 	 4.115787 
O 	 2.827372 	 -1.558267 	 5.448873 
O 	 0.487461 	 -6.011802 	 -3.460830 
O 	 3.007802 	 -3.701310 	 -4.342134 
O 	 7.110728 	 7.077324 	 3.696623 
O 	 -0.662920 	 -5.378276 	 3.424138 
O 	 -2.200429 	 5.605589 	 4.136606 
O 	 0.167229 	 -1.535127 	 -2.988933 
O 	 0.265165 	 5.761445 	 -2.731891 
O 	 -5.135806 	 -1.921548 	 -2.913138 
O 	 -5.026947 	 6.138367 	 2.718032 
O 	 -0.577542 	 1.997481 	 1.777519 
O 	 -1.565999 	 7.220081 	 -0.651836 
O 	 -7.052549 	 -6.007006 	 7.299466 
O 	 -2.750018 	 -0.944801 	 6.929426 
O 	 3.737769 	 3.902952 	 -5.062163 
O 	 -2.567423 	 0.880840 	 -4.302030 
O 	 -2.083918 	 3.508904 	 -5.195767 
O 	 4.049311 	 -1.192869 	 -1.321341 
O 	 5.138469 	 1.665173 	 2.851139 
O 	 -6.196335 	 -5.860003 	 -1.765234 
O 	 0.905904 	 3.177967 	 -3.564072 
O 	 -0.412406 	 -3.782403 	 1.121411 
O 	 -7.256188 	 -0.885496 	 5.906357 
O 	 -2.402232 	 -2.611521 	 -3.412135 
O 	 -1.341872 	 5.535980 	 -6.947748 
O 	 -4.235335 	 0.596443 	 -6.451107 
O 	 6.883729 	 -2.464109 	 -1.587320 
O 	 3.463807 	 6.752308 	 -4.796346 
O 	 5.460313 	 -3.480075 	 0.790331 
O 	 6.862596 	 -7.066029 	 0.741320 
O 	 6.967197 	 -3.682353 	 3.204959 
O 	 1.346240 	 1.993968 	 -0.964688 
O 	 5.610154 	 -5.297488 	 -1.372829 
O 	 5.985620 	 1.096241 	 -5.173017 
O 	 -1.823884 	 3.465842 	 5.886601 
O 	 -5.569603 	 -4.189447 	 0.471268 
O 	 6.475987 	 2.432764 	 -2.937363 
O 	 2.851052 	 7.078214 	 -1.763062 
O 	 6.217696 	 -5.184170 	 -4.938793 
O 	 2.285499 	 -3.199836 	 -1.779958 
O 	 -1.213453 	 -3.512422 	 5.556279 
O 	 -0.025201 	 -4.708886 	 -5.863504 
O 	 -0.761061 	 1.384819 	 -7.325562 
O 	 -1.932758 	 6.631952 	 -4.020925 
O 	 0.283927 	 0.630778 	 -4.734424 
O 	 -1.590029 	 -4.988725 	 -0.875764 
O 	 2.266903 	 -0.326977 	 1.082674 
O 	 -5.054882 	 5.941857 	 -4.580638 
O 	 6.197604 	 7.074756 	 -3.595698 
O 	 5.066643 	 -1.486796 	 7.094416 
O 	 0.795042 	 4.652726 	 1.028319 
O 	 -0.518349 	 -1.199496 	 4.211741 
K 	 -5.653310 	 1.535874 	 5.944103 
