333
conformation = 28
H 	 -5.829810 	 3.942237 	 0.516127 
H 	 -5.941134 	 5.455890 	 1.255465 
H 	 5.499540 	 0.967764 	 6.086050 
H 	 6.627018 	 0.492772 	 5.267214 
H 	 -3.979097 	 3.985753 	 -6.823804 
H 	 -4.372546 	 4.996625 	 6.965451 
H 	 6.384018 	 5.131827 	 -0.863474 
H 	 -7.003981 	 4.992452 	 -1.053824 
H 	 -4.903533 	 2.661386 	 -3.817892 
H 	 -5.465269 	 2.732954 	 -5.286053 
H 	 -7.636185 	 2.086788 	 -6.240955 
H 	 -7.066103 	 3.504619 	 -6.506186 
H 	 -1.807529 	 0.347705 	 -0.604197 
H 	 -2.300387 	 1.768474 	 -1.158786 
H 	 -5.434330 	 -3.742852 	 -5.914326 
H 	 -4.011116 	 -3.331871 	 -6.413432 
H 	 -1.984933 	 2.396771 	 2.842002 
H 	 -2.451744 	 2.959731 	 4.131063 
H 	 -3.930458 	 -5.427368 	 -6.372651 
H 	 -2.694340 	 -6.266963 	 -6.068270 
H 	 4.092697 	 4.915368 	 0.212137 
H 	 3.996181 	 6.199452 	 -0.637441 
H 	 -1.337177 	 -3.481373 	 -6.036628 
H 	 -2.161829 	 -2.327451 	 -6.773436 
H 	 3.169619 	 -5.551989 	 -6.846616 
H 	 3.257037 	 -4.922004 	 -5.358387 
H 	 -7.378582 	 -3.824381 	 -4.202233 
H 	 -6.175883 	 -2.820254 	 -3.891826 
H 	 2.065847 	 4.855746 	 3.951802 
H 	 1.111184 	 5.998661 	 4.457288 
H 	 7.242552 	 5.829828 	 -6.449679 
H 	 -6.168722 	 5.697781 	 -5.990868 
H 	 4.253877 	 3.042849 	 7.350049 
H 	 3.223181 	 1.756535 	 7.186153 
H 	 -3.544971 	 -0.460319 	 4.953086 
H 	 -4.520264 	 -1.570499 	 4.408415 
H 	 -0.998088 	 -1.087635 	 0.867098 
H 	 -2.334500 	 -1.868650 	 1.443893 
H 	 0.988959 	 -2.125134 	 3.204359 
H 	 2.075711 	 -1.729499 	 2.133819 
H 	 -1.317524 	 7.015965 	 1.157567 
H 	 -1.009301 	 -6.959221 	 2.450128 
H 	 2.334540 	 -4.291116 	 2.892958 
H 	 2.435717 	 -5.854661 	 2.765429 
H 	 -6.119158 	 1.385186 	 0.778207 
H 	 -7.483777 	 1.907416 	 0.100022 
H 	 -4.648995 	 5.761259 	 -2.316280 
H 	 -4.644982 	 5.681067 	 -0.782461 
H 	 2.577287 	 0.748409 	 -4.001577 
H 	 2.313072 	 1.134123 	 -2.502755 
H 	 1.819361 	 4.768888 	 -6.716985 
H 	 1.024529 	 5.725092 	 7.395554 
H 	 -0.163859 	 -6.581181 	 6.419810 
H 	 -0.925807 	 -7.613892 	 7.351176 
H 	 2.194991 	 6.970682 	 2.093118 
H 	 0.850903 	 -7.477522 	 1.509636 
H 	 -6.562810 	 -6.348675 	 4.300485 
H 	 -6.355415 	 -6.241093 	 5.811711 
H 	 -6.035734 	 -0.988301 	 2.031186 
H 	 -6.620994 	 -0.266102 	 3.263472 
H 	 5.076999 	 5.311849 	 7.372240 
H 	 5.957290 	 4.548134 	 6.275427 
H 	 -6.641460 	 -1.460955 	 -5.356005 
H 	 -7.244635 	 0.026090 	 -5.210314 
H 	 7.012070 	 3.754946 	 3.544430 
H 	 6.516444 	 2.895768 	 2.421383 
H 	 -5.985307 	 -4.054912 	 5.017713 
H 	 -5.334861 	 -3.605179 	 6.297659 
H 	 -4.490553 	 0.904546 	 -2.138024 
H 	 -5.941010 	 1.313091 	 -1.735326 
H 	 5.365812 	 0.856095 	 -0.018569 
H 	 4.689662 	 2.172378 	 -0.193333 
H 	 -3.820241 	 0.207550 	 2.038838 
H 	 -3.683617 	 0.839980 	 0.625861 
H 	 1.366186 	 2.008249 	 2.942094 
H 	 2.587562 	 1.032582 	 2.910433 
H 	 1.772671 	 -1.766333 	 -5.290941 
H 	 1.606704 	 -1.826663 	 -6.847185 
H 	 5.777460 	 -3.100399 	 6.535290 
H 	 4.909249 	 -4.335932 	 6.165582 
H 	 0.665191 	 -6.230986 	 4.503129 
H 	 1.879213 	 -6.938473 	 5.266009 
H 	 5.351681 	 -0.909405 	 -4.514720 
H 	 5.936664 	 -2.306837 	 -4.280068 
H 	 -3.456246 	 -5.517001 	 -4.034082 
H 	 -3.185363 	 -6.308847 	 -2.731936 
H 	 -6.814276 	 5.257186 	 6.269018 
H 	 -7.392218 	 5.614855 	 4.901455 
H 	 1.281414 	 -3.785521 	 -7.074062 
H 	 0.515983 	 -3.436377 	 6.514401 
H 	 3.377979 	 3.003177 	 1.780606 
H 	 2.400812 	 3.669946 	 0.964830 
H 	 -4.815899 	 -7.500623 	 5.574044 
H 	 -3.510145 	 6.572134 	 5.110895 
H 	 -2.217980 	 -5.974798 	 6.242619 
H 	 -3.790288 	 -5.791674 	 5.866117 
H 	 1.443210 	 -0.348045 	 0.519624 
H 	 -0.119724 	 -0.617051 	 -0.938485 
H 	 -4.098116 	 -3.529262 	 -0.165332 
H 	 -3.646104 	 -2.255170 	 -0.915852 
H 	 -1.644904 	 4.301827 	 -1.954774 
H 	 -3.177683 	 4.257431 	 -1.890417 
H 	 4.056992 	 -6.913874 	 5.337944 
H 	 3.463978 	 -5.695515 	 4.700595 
H 	 5.278875 	 -1.502538 	 1.048632 
H 	 6.514587 	 -1.015378 	 1.953967 
H 	 3.885542 	 -4.668738 	 0.594235 
H 	 2.736652 	 -5.689766 	 0.660638 
H 	 2.031292 	 0.069870 	 5.711616 
H 	 2.024632 	 1.549604 	 5.153543 
H 	 6.044512 	 -7.362239 	 -6.502772 
H 	 4.804379 	 6.776495 	 -5.938743 
H 	 -5.656467 	 3.143370 	 3.075930 
H 	 -4.389158 	 2.366284 	 3.282957 
H 	 3.977326 	 5.666006 	 2.905737 
H 	 4.491980 	 6.807137 	 1.927717 
H 	 3.482251 	 3.441796 	 3.984907 
H 	 4.200368 	 4.308032 	 5.066034 
H 	 2.663509 	 -1.781874 	 4.526044 
H 	 2.346857 	 -2.251633 	 5.995221 
H 	 0.197675 	 -5.617553 	 -2.600346 
H 	 0.163399 	 -6.913446 	 -3.373245 
H 	 3.700267 	 -3.028619 	 -4.424379 
H 	 2.620255 	 -3.724122 	 -3.430839 
H 	 7.155859 	 6.861480 	 2.758137 
H 	 6.129934 	 6.914581 	 3.769536 
H 	 -1.129225 	 -4.791715 	 4.048401 
H 	 -0.601816 	 -4.823413 	 2.615773 
H 	 -1.661866 	 5.663939 	 3.357607 
H 	 -1.650560 	 5.099919 	 4.843866 
H 	 -0.721180 	 -2.006377 	 -3.050757 
H 	 0.889545 	 -2.227194 	 -2.951934 
H 	 1.074396 	 6.075936 	 -2.288312 
H 	 0.605786 	 4.919160 	 -3.087629 
H 	 -4.170313 	 -1.944660 	 -2.976863 
H 	 -5.228744 	 -0.914094 	 -3.072724 
H 	 -5.337305 	 6.690058 	 3.494570 
H 	 -4.350610 	 5.536727 	 3.128007 
H 	 -0.704559 	 1.237363 	 1.127318 
H 	 -0.360925 	 2.804612 	 1.233347 
H 	 -2.389583 	 6.771283 	 -0.969148 
H 	 -1.708340 	 -6.775002 	 -0.959347 
H 	 7.143232 	 -5.296444 	 7.219295 
H 	 -6.241522 	 -5.687415 	 -7.130882 
H 	 -1.930902 	 -0.375553 	 6.956111 
H 	 -3.397977 	 -0.409803 	 -7.489106 
H 	 3.749024 	 3.029331 	 -5.526309 
H 	 3.391930 	 3.642249 	 -4.175866 
H 	 -1.594205 	 0.814724 	 -4.287761 
H 	 -2.812076 	 1.017518 	 -3.347431 
H 	 -1.543945 	 3.234127 	 -4.437836 
H 	 -2.936935 	 3.020735 	 -5.055093 
H 	 4.970746 	 -1.440841 	 -1.488290 
H 	 3.813363 	 -0.629088 	 -2.125125 
H 	 4.816512 	 0.862724 	 2.386050 
H 	 5.494588 	 1.311619 	 3.747231 
H 	 -5.540282 	 -5.879423 	 -2.454786 
H 	 -6.089682 	 -6.583267 	 -1.062870 
H 	 0.811715 	 2.897333 	 -2.600127 
H 	 0.868557 	 2.347797 	 -4.116835 
H 	 -0.868870 	 -2.890188 	 1.311545 
H 	 0.539296 	 -3.565049 	 1.328373 
H 	 -6.739490 	 -1.733510 	 5.634736 
H 	 7.182841 	 -1.142566 	 6.686115 
H 	 -2.401260 	 -2.703248 	 -4.404706 
H 	 -2.750185 	 -3.488380 	 -3.111157 
H 	 -1.345726 	 4.742427 	 7.346467 
H 	 -1.467881 	 5.040853 	 -6.094625 
H 	 -5.113139 	 0.280147 	 -6.117228 
H 	 -3.757133 	 0.655166 	 -5.628559 
H 	 -7.031739 	 -2.140976 	 -1.611155 
H 	 6.873855 	 -3.419763 	 -1.778479 
H 	 3.227332 	 -7.275856 	 -5.176004 
H 	 2.959762 	 6.090355 	 -5.233920 
H 	 5.878371 	 -3.681865 	 1.672268 
H 	 6.174237 	 -3.270941 	 0.157057 
H 	 6.307091 	 -6.537392 	 0.049641 
H 	 6.599211 	 6.911511 	 0.538425 
H 	 -7.482800 	 -2.833667 	 3.117868 
H 	 6.398078 	 -3.614883 	 3.961445 
H 	 2.177524 	 2.291394 	 -0.549907 
H 	 0.940598 	 1.317824 	 -0.375609 
H 	 4.651922 	 -5.506744 	 -1.275602 
H 	 5.834786 	 -5.728258 	 -2.201842 
H 	 5.309276 	 1.438283 	 -5.769576 
H 	 6.052406 	 1.699966 	 -4.312757 
H 	 -1.442738 	 2.704974 	 6.448508 
H 	 -2.623239 	 3.731067 	 6.350396 
H 	 -5.760912 	 -4.983469 	 1.038658 
H 	 -5.975431 	 -4.515128 	 -0.402597 
H 	 6.044464 	 2.105651 	 -2.090674 
H 	 6.496215 	 3.394092 	 -2.798049 
H 	 3.306246 	 -7.664968 	 -2.648553 
H 	 2.512562 	 -6.970527 	 -1.342823 
H 	 6.325858 	 -5.963790 	 -4.384050 
H 	 5.311525 	 -5.212365 	 -5.289704 
H 	 2.952769 	 -2.478768 	 -1.582824 
H 	 2.533556 	 -3.849015 	 -1.077362 
H 	 -2.151921 	 -3.924209 	 5.623522 
H 	 -1.338838 	 -2.634703 	 5.208439 
H 	 -0.257429 	 -5.424187 	 -6.514404 
H 	 0.210001 	 -5.173401 	 -5.032683 
H 	 -0.742950 	 1.511239 	 -6.354347 
H 	 0.149937 	 1.340605 	 7.167063 
H 	 -1.212674 	 6.330353 	 -3.455554 
H 	 -1.561285 	 6.560310 	 -4.864875 
H 	 0.369784 	 -0.128661 	 -4.025586 
H 	 0.561223 	 0.094994 	 -5.512053 
H 	 -2.323766 	 -4.399284 	 -1.070706 
H 	 -1.099233 	 -4.513209 	 -0.133120 
H 	 2.946562 	 -0.061664 	 0.402995 
H 	 -1.089821 	 -0.955140 	 3.437025 
H 	 -4.219197 	 6.434441 	 -4.716046 
H 	 -4.753908 	 5.004961 	 -4.535937 
H 	 6.564945 	 6.387063 	 -2.975983 
H 	 5.441000 	 6.578555 	 -3.914417 
H 	 4.695831 	 -1.536687 	 -6.890005 
H 	 4.277049 	 -1.522696 	 6.547794 
H 	 0.744105 	 5.134346 	 1.853166 
H 	 0.640001 	 5.298960 	 0.305071 
H 	 -0.275138 	 -0.347473 	 4.595251 
O 	 -5.820133 	 4.920114 	 0.431642 
O 	 6.000494 	 1.222798 	 5.247937 
O 	 -4.068349 	 4.081440 	 7.141680 
O 	 7.072845 	 4.937046 	 -1.554712 
O 	 -4.917043 	 3.202029 	 -4.625844 
O 	 -6.847583 	 2.543831 	 -6.641438 
O 	 -2.524887 	 0.821375 	 -1.153458 
O 	 -4.835549 	 -3.738492 	 -6.685305 
O 	 -2.646451 	 2.217666 	 3.577688 
O 	 -3.606710 	 -6.133021 	 -5.750339 
O 	 4.626498 	 5.628280 	 -0.159415 
O 	 -2.182038 	 -2.956117 	 -6.031422 
O 	 3.460411 	 -5.730394 	 -5.957517 
O 	 -6.776503 	 -3.171675 	 -4.586152 
O 	 1.152945 	 5.140508 	 3.961027 
O 	 -6.898746 	 5.246212 	 -6.461602 
O 	 3.966244 	 2.157156 	 -7.275451 
O 	 -4.303160 	 -0.618673 	 4.344446 
O 	 -1.476303 	 -1.525031 	 1.710957 
O 	 1.892936 	 -2.366028 	 2.919392 
O 	 -1.015310 	 7.019824 	 2.090138 
O 	 2.975044 	 -5.065107 	 2.975819 
O 	 -6.492364 	 1.938406 	 0.119005 
O 	 -4.154215 	 6.075068 	 -1.519018 
O 	 2.966992 	 0.753994 	 -3.123271 
O 	 1.881904 	 5.683712 	 -7.063024 
O 	 -0.809781 	 -6.619281 	 7.182158 
O 	 1.775226 	 -7.638014 	 1.241238 
O 	 -5.837398 	 -6.243369 	 4.930865 
O 	 -6.811739 	 -0.955403 	 2.599450 
O 	 5.109480 	 4.554964 	 6.761192 
O 	 -6.400454 	 -0.509372 	 -5.415974 
O 	 7.081781 	 3.695847 	 2.575848 
O 	 -5.535803 	 -3.291256 	 5.409844 
O 	 -5.322114 	 1.164191 	 -2.539684 
O 	 5.522235 	 1.709664 	 -0.335650 
O 	 -4.387105 	 0.476949 	 1.236555 
O 	 2.237943 	 1.817250 	 3.344621 
O 	 1.898028 	 -1.222910 	 -6.089902 
O 	 5.863113 	 -4.071060 	 6.269607 
O 	 0.939128 	 -7.015415 	 5.008699 
O 	 5.166699 	 -1.855212 	 -4.581618 
O 	 -3.529408 	 -5.493541 	 -3.074318 
O 	 -7.281567 	 4.847966 	 5.508686 
O 	 1.427125 	 -3.443152 	 6.876584 
O 	 3.239541 	 3.143299 	 0.856418 
O 	 -4.078461 	 6.841022 	 5.889049 
O 	 -2.992068 	 -5.348081 	 6.176214 
O 	 -0.196384 	 -0.224262 	 -0.051373 
O 	 -3.345930 	 -2.844549 	 -0.225641 
O 	 -2.384830 	 3.670741 	 -1.852021 
O 	 3.690022 	 -5.994735 	 5.620024 
O 	 5.809646 	 -0.773058 	 1.271301 
O 	 3.216959 	 -5.107350 	 -0.005060 
O 	 1.753910 	 0.994647 	 6.005076 
O 	 5.626860 	 6.689349 	 -6.518863 
O 	 -5.266441 	 2.565412 	 3.691089 
O 	 3.971685 	 6.642282 	 2.746843 
O 	 3.931083 	 4.285778 	 4.111007 
O 	 2.842555 	 -1.549846 	 5.447800 
O 	 0.493408 	 -6.002231 	 -3.445352 
O 	 3.004717 	 -3.698715 	 -4.340416 
O 	 7.107083 	 7.063634 	 3.709015 
O 	 -0.661294 	 -5.357878 	 3.431932 
O 	 -2.196568 	 5.594612 	 4.154437 
O 	 0.181516 	 -1.542601 	 -2.989087 
O 	 0.266884 	 5.751605 	 -2.742453 
O 	 -5.143887 	 -1.897456 	 -2.904583 
O 	 -5.019535 	 6.132008 	 2.725544 
O 	 -0.558512 	 1.994296 	 1.766526 
O 	 -1.555054 	 7.219824 	 -0.660578 
O 	 -7.063982 	 -6.009616 	 7.291973 
O 	 -2.733227 	 -0.947960 	 6.934992 
O 	 3.724066 	 3.913999 	 -5.062048 
O 	 -2.566543 	 0.885590 	 -4.304560 
O 	 -2.081016 	 3.504542 	 -5.200354 
O 	 4.052650 	 -1.204728 	 -1.334978 
O 	 5.139848 	 1.676926 	 2.855763 
O 	 -6.206354 	 -5.864189 	 -1.764214 
O 	 0.897761 	 3.191375 	 -3.571849 
O 	 -0.396951 	 -3.777564 	 1.115971 
O 	 -7.250049 	 -0.908500 	 5.883560 
O 	 -2.414813 	 -2.612220 	 -3.427035 
O 	 -1.339381 	 5.528001 	 -6.947944 
O 	 -4.221732 	 0.592971 	 -6.453794 
O 	 6.891362 	 -2.457890 	 -1.581093 
O 	 3.470285 	 6.765299 	 -4.786148 
O 	 5.470080 	 -3.477982 	 0.804514 
O 	 6.846432 	 -7.044783 	 0.736035 
O 	 6.955674 	 -3.692376 	 3.199548 
O 	 1.350716 	 1.982790 	 -0.965522 
O 	 5.594741 	 -5.265532 	 -1.359607 
O 	 6.000191 	 1.100185 	 -5.161910 
O 	 -1.804319 	 3.449546 	 5.869248 
O 	 -5.561021 	 -4.189663 	 0.482634 
O 	 6.470632 	 2.439589 	 -2.951067 
O 	 2.834126 	 7.082844 	 -1.778874 
O 	 6.222919 	 -5.181153 	 -4.933457 
O 	 2.289950 	 -3.218697 	 -1.780382 
O 	 -1.222299 	 -3.518926 	 5.553753 
O 	 -0.006406 	 -4.714981 	 -5.857063 
O 	 -0.772695 	 1.385376 	 -7.312688 
O 	 -1.929044 	 6.622056 	 -3.993289 
O 	 0.280784 	 0.617870 	 -4.729916 
O 	 -1.573385 	 -5.004397 	 -0.888965 
O 	 2.280009 	 -0.321768 	 1.053727 
O 	 -5.047370 	 5.932367 	 -4.584130 
O 	 6.201438 	 7.055941 	 -3.582423 
O 	 5.064188 	 -1.485630 	 7.088903 
O 	 0.809594 	 4.656468 	 1.018253 
O 	 -0.533576 	 -1.191819 	 4.230867 
K 	 -5.657178 	 1.530297 	 5.941953 
