333
conformation = 1
H 	 1.300679 	 11.670664 	 8.070740 
H 	 2.046125 	 13.010761 	 8.758584 
H 	 12.910822 	 9.070864 	 13.461868 
H 	 13.679039 	 7.857133 	 12.997979 
H 	 3.761933 	 11.862867 	 0.873763 
H 	 3.463143 	 12.543621 	 14.378979 
H 	 13.871247 	 12.696475 	 6.486152 
H 	 0.450914 	 12.767529 	 6.813732 
H 	 2.526057 	 10.167611 	 3.624744 
H 	 2.112860 	 10.582316 	 2.151665 
H 	 0.067974 	 9.844076 	 1.502812 
H 	 0.566185 	 11.144295 	 0.875124 
H 	 5.965771 	 8.122656 	 6.465238 
H 	 5.305618 	 9.583094 	 6.179165 
H 	 2.088438 	 4.263245 	 1.544764 
H 	 3.596521 	 4.222226 	 1.078014 
H 	 5.737176 	 9.858894 	 10.432584 
H 	 5.328428 	 10.480915 	 11.717094 
H 	 3.639003 	 2.022611 	 1.179569 
H 	 4.878122 	 1.151463 	 1.469853 
H 	 11.892218 	 12.630796 	 7.780171 
H 	 11.577262 	 13.797428 	 6.800089 
H 	 6.051711 	 3.977140 	 1.457986 
H 	 5.568445 	 5.332368 	 0.774274 
H 	 10.857236 	 2.071347 	 0.666586 
H 	 10.601088 	 2.717755 	 2.182218 
H 	 0.194490 	 3.533081 	 2.936602 
H 	 1.233695 	 4.438020 	 3.869658 
H 	 9.746395 	 12.621345 	 11.903646 
H 	 8.491082 	 13.554819 	 11.921689 
H 	 14.723944 	 13.096038 	 1.121599 
H 	 1.197042 	 13.180005 	 1.806419 
H 	 11.883453 	 10.664130 	 14.742830 
H 	 10.777014 	 9.415726 	 14.647056 
H 	 3.910313 	 6.817660 	 12.627136 
H 	 2.642682 	 6.208535 	 12.025395 
H 	 6.669837 	 6.723885 	 8.490385 
H 	 5.268499 	 6.087814 	 8.607539 
H 	 8.506147 	 5.644919 	 10.835501 
H 	 9.566292 	 6.063803 	 9.744079 
H 	 6.171950 	 14.836784 	 8.624116 
H 	 6.496234 	 0.636197 	 10.042430 
H 	 9.915393 	 3.319132 	 10.379820 
H 	 10.039280 	 1.822403 	 10.172285 
H 	 1.541569 	 9.225937 	 8.276790 
H 	 0.068372 	 9.603665 	 7.713841 
H 	 3.014264 	 13.671796 	 5.029332 
H 	 2.772353 	 13.280304 	 6.485248 
H 	 10.306305 	 8.742945 	 3.660127 
H 	 9.821630 	 8.800988 	 5.143660 
H 	 9.792470 	 12.395058 	 0.541605 
H 	 8.562254 	 13.267862 	 0.392368 
H 	 7.382844 	 0.797793 	 13.939352 
H 	 6.485028 	 0.024443 	 0.138160 
H 	 9.948445 	 14.492713 	 9.380662 
H 	 8.470704 	 14.874247 	 8.999009 
H 	 1.161401 	 1.241367 	 11.742818 
H 	 1.147267 	 1.613968 	 13.248448 
H 	 1.425133 	 6.869391 	 9.536238 
H 	 1.122524 	 7.312513 	 10.966483 
H 	 12.594984 	 13.022190 	 14.690010 
H 	 13.483951 	 11.915412 	 13.975000 
H 	 0.997101 	 6.170970 	 1.995163 
H 	 0.261041 	 7.621856 	 1.936906 
H 	 14.521662 	 11.686707 	 11.010784 
H 	 14.212708 	 10.738500 	 9.883768 
H 	 2.234746 	 3.532059 	 12.674452 
H 	 2.491533 	 4.329234 	 13.911575 
H 	 2.864962 	 8.731998 	 5.761031 
H 	 1.343388 	 9.116805 	 5.504784 
H 	 12.966934 	 8.390935 	 7.408784 
H 	 12.344609 	 9.758951 	 7.637540 
H 	 3.560641 	 8.297965 	 9.686385 
H 	 3.958175 	 8.261933 	 8.194030 
H 	 8.885680 	 9.353767 	 10.434526 
H 	 10.399151 	 8.908833 	 10.558737 
H 	 9.137230 	 6.022523 	 2.299508 
H 	 9.267370 	 5.708754 	 0.742034 
H 	 13.301311 	 4.702666 	 13.984714 
H 	 12.664524 	 3.334607 	 13.829588 
H 	 7.939657 	 1.164929 	 11.748637 
H 	 9.184299 	 1.230865 	 12.772601 
H 	 12.800315 	 6.886286 	 2.980600 
H 	 13.572327 	 5.550096 	 3.215803 
H 	 3.809970 	 2.374694 	 3.487685 
H 	 4.513673 	 1.486086 	 4.533769 
H 	 0.701144 	 12.755797 	 13.739314 
H 	 0.177320 	 13.209338 	 12.406837 
H 	 9.074935 	 3.511745 	 0.398116 
H 	 8.224568 	 4.047853 	 14.120239 
H 	 11.059849 	 10.573183 	 9.366990 
H 	 9.996797 	 11.375388 	 8.711848 
H 	 2.664266 	 0.009868 	 13.191757 
H 	 4.055916 	 14.219836 	 12.488979 
H 	 5.182352 	 1.788251 	 14.209902 
H 	 3.993960 	 1.686563 	 13.127701 
H 	 8.892976 	 7.370949 	 8.246891 
H 	 7.616152 	 6.829790 	 6.718735 
H 	 3.645540 	 4.239464 	 7.901771 
H 	 3.458932 	 5.333129 	 6.871070 
H 	 6.002572 	 11.869636 	 5.613783 
H 	 4.564454 	 11.774166 	 6.196927 
H 	 11.764665 	 1.044365 	 12.667231 
H 	 11.162116 	 2.278244 	 12.425078 
H 	 13.058201 	 6.082303 	 8.727174 
H 	 14.287161 	 6.929044 	 9.251858 
H 	 11.422405 	 3.043781 	 8.043857 
H 	 10.363631 	 2.005658 	 8.291343 
H 	 9.595320 	 7.780553 	 13.522589 
H 	 9.221651 	 8.894488 	 12.435909 
H 	 13.719125 	 0.302095 	 1.161878 
H 	 12.434962 	 14.388471 	 1.770398 
H 	 1.794804 	 10.644591 	 10.502922 
H 	 3.292046 	 10.290748 	 10.835588 
H 	 11.769426 	 13.355520 	 10.526443 
H 	 11.938284 	 14.398351 	 9.314331 
H 	 11.276062 	 10.926560 	 11.743527 
H 	 11.866183 	 12.124029 	 12.582979 
H 	 10.375321 	 5.916009 	 12.007943 
H 	 9.876720 	 5.217816 	 13.323386 
H 	 7.261652 	 1.882210 	 4.606677 
H 	 7.901436 	 0.606458 	 4.137242 
H 	 11.239701 	 4.621621 	 3.023602 
H 	 10.353548 	 3.923047 	 4.162071 
H 	 0.135329 	 14.442954 	 10.289885 
H 	 13.772830 	 0.004506 	 10.765885 
H 	 6.738243 	 2.787568 	 11.682674 
H 	 7.133667 	 2.768045 	 10.138705 
H 	 5.830476 	 14.016546 	 11.007843 
H 	 5.995477 	 12.766398 	 11.900912 
H 	 6.890563 	 5.618102 	 4.307295 
H 	 8.335917 	 5.618992 	 5.078730 
H 	 8.755682 	 13.820838 	 5.059510 
H 	 8.119426 	 12.979398 	 4.013416 
H 	 3.397853 	 5.565304 	 4.203517 
H 	 2.232262 	 6.499918 	 4.286226 
H 	 2.184214 	 14.221855 	 11.042596 
H 	 3.174424 	 13.171666 	 10.547466 
H 	 6.774894 	 9.025295 	 8.582100 
H 	 7.284287 	 10.533958 	 8.917049 
H 	 5.104127 	 14.567417 	 6.585397 
H 	 5.781106 	 0.936170 	 6.905441 
H 	 14.714720 	 2.240818 	 14.734106 
H 	 1.206338 	 2.058232 	 0.626166 
H 	 5.463847 	 7.467731 	 14.339761 
H 	 4.144115 	 7.114161 	 0.175588 
H 	 11.287233 	 10.755112 	 1.824357 
H 	 11.047383 	 11.083515 	 3.315571 
H 	 5.925815 	 8.134131 	 3.031255 
H 	 4.927610 	 8.385631 	 4.212656 
H 	 6.145782 	 10.916651 	 3.037543 
H 	 4.806254 	 10.552993 	 2.381864 
H 	 12.496284 	 6.150309 	 6.186797 
H 	 11.559131 	 7.225098 	 5.564851 
H 	 13.213783 	 8.517714 	 9.944189 
H 	 12.917282 	 9.187299 	 11.279501 
H 	 2.283190 	 2.160126 	 5.245578 
H 	 1.646924 	 0.901070 	 6.109012 
H 	 8.615213 	 10.665727 	 4.966726 
H 	 8.321552 	 9.916064 	 3.575662 
H 	 6.779361 	 4.706580 	 8.960876 
H 	 8.024048 	 4.039347 	 8.302984 
H 	 0.753527 	 5.980456 	 13.379520 
H 	 14.633845 	 6.626797 	 14.341514 
H 	 5.284108 	 4.991818 	 3.234767 
H 	 5.233197 	 4.135320 	 4.469178 
H 	 5.900435 	 12.589757 	 14.797041 
H 	 6.495837 	 12.596511 	 1.281555 
H 	 2.428977 	 7.805125 	 1.396119 
H 	 3.802198 	 8.237292 	 1.913124 
H 	 0.313023 	 5.316948 	 6.388254 
H 	 14.415665 	 4.172592 	 5.644987 
H 	 10.706130 	 0.233899 	 2.205222 
H 	 10.550510 	 13.546700 	 2.258985 
H 	 13.587884 	 3.993564 	 8.958395 
H 	 13.367864 	 4.200669 	 7.387706 
H 	 14.143973 	 1.032756 	 7.587509 
H 	 14.025022 	 14.506816 	 8.136218 
H 	 0.423006 	 4.673701 	 10.700056 
H 	 14.453619 	 3.871693 	 11.701218 
H 	 9.544990 	 9.630794 	 7.345388 
H 	 8.248811 	 8.986648 	 6.713714 
H 	 12.324479 	 2.001504 	 6.179046 
H 	 13.442659 	 1.780023 	 5.180338 
H 	 12.765888 	 8.984306 	 1.704304 
H 	 13.478969 	 9.262118 	 3.143223 
H 	 6.137577 	 10.367168 	 13.741754 
H 	 4.757232 	 11.096062 	 13.949238 
H 	 2.082235 	 2.853803 	 8.674569 
H 	 1.778474 	 2.818309 	 7.181327 
H 	 13.720181 	 9.940738 	 5.515413 
H 	 14.539844 	 10.922154 	 4.654519 
H 	 10.888387 	 0.079956 	 4.985234 
H 	 10.190512 	 0.536434 	 6.405913 
H 	 13.941092 	 1.493342 	 2.834643 
H 	 12.840477 	 2.412805 	 2.213011 
H 	 10.515704 	 5.189264 	 6.075318 
H 	 9.910457 	 3.805647 	 6.377172 
H 	 5.579972 	 3.877821 	 13.500217 
H 	 6.331720 	 5.055625 	 12.804343 
H 	 7.266825 	 2.155474 	 1.073569 
H 	 7.706533 	 2.590050 	 2.484415 
H 	 6.718353 	 9.260700 	 1.012982 
H 	 7.797869 	 8.888009 	 14.756297 
H 	 6.263415 	 14.116350 	 4.027446 
H 	 6.051871 	 14.229330 	 2.518028 
H 	 7.886241 	 7.565760 	 3.435565 
H 	 8.497895 	 7.934341 	 2.085395 
H 	 5.243091 	 3.282507 	 6.370290 
H 	 6.336721 	 3.236100 	 7.417379 
H 	 10.309656 	 6.759169 	 8.130235 
H 	 6.636886 	 6.621677 	 10.833100 
H 	 3.400546 	 13.922600 	 2.686179 
H 	 2.655196 	 12.645461 	 3.052079 
H 	 14.395228 	 14.546118 	 4.568085 
H 	 13.341834 	 13.926688 	 3.725447 
H 	 12.589786 	 5.929734 	 0.687348 
H 	 11.785100 	 6.250466 	 14.400759 
H 	 8.290158 	 12.589249 	 9.463930 
H 	 8.133908 	 12.903340 	 7.927175 
H 	 7.512181 	 7.310783 	 11.961591 
O 	 1.779474 	 12.500320 	 7.945701 
O 	 13.557233 	 8.800979 	 12.756021 
O 	 3.388699 	 11.691573 	 14.884293 
O 	 14.737855 	 12.663117 	 6.063943 
O 	 2.742072 	 10.754115 	 2.868584 
O 	 0.741168 	 10.158519 	 0.909030 
O 	 5.108791 	 8.625073 	 6.347313 
O 	 2.696697 	 3.965113 	 0.829510 
O 	 4.967410 	 9.877339 	 11.082218 
O 	 4.043820 	 1.420606 	 1.852587 
O 	 12.286269 	 13.438374 	 7.393844 
O 	 5.397482 	 4.728981 	 1.533137 
O 	 10.967622 	 1.929741 	 1.615898 
O 	 0.802623 	 4.320450 	 3.010835 
O 	 8.818054 	 12.695867 	 11.632793 
O 	 0.730283 	 12.840748 	 1.019158 
O 	 11.550917 	 9.831713 	 0.205580 
O 	 3.243584 	 6.952477 	 11.933182 
O 	 6.067795 	 6.172601 	 9.099015 
O 	 9.299366 	 5.262514 	 10.380584 
O 	 6.711705 	 14.774284 	 9.454684 
O 	 10.565429 	 2.568617 	 10.385538 
O 	 1.024148 	 9.611680 	 7.588113 
O 	 3.389937 	 13.767439 	 5.918894 
O 	 10.472420 	 8.421746 	 4.567709 
O 	 9.540647 	 13.370579 	 0.459605 
O 	 6.775996 	 0.957298 	 14.736092 
O 	 9.408759 	 0.177394 	 8.774138 
O 	 1.773480 	 1.558114 	 12.455231 
O 	 0.863437 	 6.644013 	 10.328943 
O 	 12.576649 	 12.180604 	 14.248510 
O 	 1.142479 	 7.127213 	 2.080331 
O 	 14.855781 	 11.448411 	 10.119222 
O 	 2.082769 	 4.443453 	 13.004970 
O 	 2.155298 	 8.720675 	 5.058095 
O 	 13.096241 	 9.325972 	 7.154459 
O 	 3.186863 	 8.069573 	 8.805576 
O 	 9.671424 	 9.376122 	 10.994348 
O 	 9.533565 	 6.381529 	 1.422751 
O 	 13.550322 	 3.738193 	 13.790623 
O 	 8.372844 	 0.714490 	 12.481735 
O 	 12.697659 	 5.953399 	 2.918874 
O 	 4.047363 	 2.329227 	 4.426696 
O 	 0.254949 	 12.402124 	 12.958875 
O 	 9.107924 	 4.148382 	 14.519846 
O 	 10.790301 	 10.874409 	 8.458175 
O 	 3.511490 	 14.418216 	 13.334717 
O 	 4.500011 	 2.280827 	 13.675763 
O 	 7.449860 	 7.449860 	 7.449860 
O 	 4.204641 	 4.805291 	 7.239490 
O 	 5.262819 	 11.246346 	 5.736549 
O 	 11.198995 	 1.624906 	 13.191406 
O 	 13.412136 	 6.983450 	 8.806155 
O 	 10.698869 	 2.529158 	 7.518694 
O 	 9.261419 	 8.728179 	 13.486354 
O 	 13.121648 	 14.451925 	 1.029471 
O 	 2.369489 	 10.112765 	 11.118097 
O 	 11.717188 	 14.323557 	 10.282731 
O 	 11.490142 	 11.881746 	 11.687462 
O 	 10.322604 	 6.051357 	 12.960305 
O 	 8.047029 	 1.579868 	 4.043814 
O 	 10.596198 	 3.960086 	 3.197519 
O 	 14.694948 	 14.748020 	 11.146576 
O 	 6.935243 	 2.212755 	 10.913226 
O 	 5.332871 	 13.339242 	 11.505814 
O 	 7.715494 	 6.176700 	 4.515613 
O 	 7.886791 	 13.429557 	 4.837523 
O 	 2.505859 	 5.610067 	 4.602465 
O 	 2.525184 	 13.822134 	 10.210305 
O 	 6.922327 	 9.682191 	 9.324368 
O 	 5.961169 	 14.875496 	 6.913205 
O 	 0.573999 	 1.646418 	 14.869887 
O 	 4.771730 	 6.746706 	 14.397338 
O 	 11.403126 	 11.510387 	 2.468702 
O 	 5.015732 	 8.484055 	 3.241705 
O 	 5.536035 	 11.192975 	 2.320844 
O 	 11.634809 	 6.537160 	 6.293375 
O 	 12.677733 	 9.254385 	 10.281591 
O 	 1.488377 	 1.791973 	 5.704260 
O 	 8.535769 	 10.789913 	 3.995884 
O 	 7.163889 	 3.822091 	 8.711920 
O 	 0.336500 	 6.854573 	 13.584681 
O 	 5.233698 	 5.065458 	 4.219013 
O 	 6.285649 	 13.252087 	 0.566823 
O 	 3.287248 	 8.220139 	 1.073024 
O 	 14.401459 	 5.129066 	 5.893481 
O 	 10.980484 	 14.340075 	 2.663080 
O 	 12.914441 	 4.161965 	 8.268833 
O 	 14.530360 	 0.430433 	 8.288897 
O 	 14.614539 	 4.009454 	 10.758020 
O 	 8.915078 	 9.704543 	 6.562102 
O 	 13.312340 	 2.158804 	 6.056104 
O 	 13.487209 	 8.701395 	 2.293565 
O 	 5.617890 	 11.212064 	 13.566287 
O 	 1.952261 	 3.464983 	 7.946592 
O 	 14.106391 	 10.036080 	 4.600457 
O 	 10.520964 	 14.713490 	 5.836718 
O 	 13.761407 	 2.394965 	 2.576805 
O 	 9.821862 	 4.540074 	 5.745267 
O 	 6.445978 	 4.170865 	 13.086011 
O 	 7.479756 	 2.960975 	 1.612980 
O 	 6.850678 	 9.008379 	 0.072903 
O 	 5.602722 	 14.364518 	 3.364427 
O 	 7.916285 	 8.344690 	 2.768712 
O 	 5.940308 	 2.704993 	 6.639900 
O 	 9.797694 	 7.302276 	 8.779946 
O 	 2.506050 	 13.618657 	 2.992222 
O 	 13.760221 	 14.817220 	 3.882462 
O 	 12.686721 	 6.176340 	 14.670070 
O 	 8.308462 	 12.199766 	 8.599174 
O 	 7.167408 	 6.436709 	 11.641160 
K 	 1.957339 	 9.227035 	 13.497594 
