333
conformation = 50
H 	 -5.878861 	 3.873070 	 0.541378 
H 	 -5.755464 	 5.138230 	 1.425099 
H 	 5.521244 	 0.916342 	 6.153694 
H 	 6.675086 	 0.338360 	 5.315441 
H 	 -4.167666 	 3.807549 	 -6.860836 
H 	 -4.158698 	 4.980113 	 6.922624 
H 	 6.222698 	 5.026773 	 -1.037024 
H 	 -7.161775 	 4.666236 	 -0.865082 
H 	 -5.019615 	 2.571978 	 -3.704766 
H 	 -5.506256 	 2.714615 	 -5.197173 
H 	 -7.570347 	 1.967323 	 -6.171288 
H 	 -6.942685 	 3.454051 	 -6.528061 
H 	 -1.644734 	 0.360887 	 -0.621564 
H 	 -2.496820 	 1.639983 	 -1.113303 
H 	 -5.337750 	 -3.516082 	 -5.833540 
H 	 -3.866378 	 -3.665649 	 -6.292931 
H 	 -1.938358 	 2.049509 	 2.992887 
H 	 -2.246307 	 2.505092 	 4.521750 
H 	 -3.907608 	 -5.386768 	 -6.216541 
H 	 -2.722164 	 -6.282775 	 -6.105410 
H 	 4.160869 	 4.599139 	 0.221274 
H 	 4.085941 	 5.977792 	 -0.682917 
H 	 -1.319004 	 -3.570510 	 -6.152374 
H 	 -2.133893 	 -2.306301 	 -6.641395 
H 	 3.229676 	 -5.716600 	 -6.827001 
H 	 3.128887 	 -5.048661 	 -5.375101 
H 	 -7.240316 	 -3.949806 	 -4.274940 
H 	 -6.107897 	 -2.941494 	 -3.813340 
H 	 2.075935 	 4.864188 	 4.078274 
H 	 1.096044 	 6.061405 	 4.162402 
H 	 7.194925 	 5.666271 	 -5.987400 
H 	 -6.134954 	 5.622255 	 -5.872244 
H 	 4.456472 	 2.801884 	 7.282735 
H 	 3.170227 	 1.893622 	 7.235691 
H 	 -3.425823 	 -0.463136 	 4.907983 
H 	 -4.235813 	 -1.631855 	 4.578917 
H 	 -0.962074 	 -1.041435 	 1.201934 
H 	 -2.379721 	 -1.691235 	 1.484449 
H 	 1.189062 	 -2.047381 	 3.376304 
H 	 2.351192 	 -1.840840 	 2.314102 
H 	 -1.375471 	 6.937425 	 1.325774 
H 	 -1.431911 	 -7.266625 	 2.705883 
H 	 2.640683 	 -4.261391 	 3.088937 
H 	 2.345444 	 -5.789096 	 2.823629 
H 	 -6.063844 	 1.075219 	 0.782982 
H 	 -7.369928 	 1.775354 	 0.303545 
H 	 -4.633397 	 6.172028 	 -2.139381 
H 	 -4.715612 	 5.593946 	 -0.620319 
H 	 2.462708 	 0.270887 	 -3.828253 
H 	 2.495612 	 1.045234 	 -2.433215 
H 	 1.830620 	 4.710812 	 -6.468534 
H 	 0.937334 	 5.741770 	 -7.268556 
H 	 -0.023169 	 -6.742131 	 6.602343 
H 	 -0.981089 	 -7.564410 	 -7.317545 
H 	 2.443087 	 6.836142 	 1.928412 
H 	 0.864118 	 7.119261 	 1.767248 
H 	 -6.663198 	 -6.598405 	 4.468000 
H 	 -6.238873 	 -6.414835 	 5.952579 
H 	 -5.899560 	 -1.148246 	 2.125944 
H 	 -6.465554 	 -0.449724 	 3.289580 
H 	 5.159217 	 5.257458 	 7.421981 
H 	 6.121351 	 4.516374 	 6.437014 
H 	 -6.717025 	 -1.454574 	 -4.976664 
H 	 -7.078941 	 0.017332 	 -5.067386 
H 	 7.176421 	 3.570866 	 3.627201 
H 	 6.339562 	 2.827528 	 2.541972 
H 	 -6.015091 	 -4.154229 	 5.029285 
H 	 -5.297581 	 -3.744852 	 6.354011 
H 	 -4.303575 	 0.826008 	 -2.099768 
H 	 -5.661573 	 1.496134 	 -1.731134 
H 	 5.658286 	 0.767467 	 0.319844 
H 	 4.825692 	 2.200345 	 0.116659 
H 	 -3.803565 	 0.135719 	 2.054095 
H 	 -3.803018 	 0.486965 	 0.519800 
H 	 1.396534 	 2.057550 	 3.152081 
H 	 2.418642 	 0.981627 	 2.784749 
H 	 2.354069 	 -2.016647 	 -5.487356 
H 	 1.685399 	 -1.653738 	 -6.841086 
H 	 5.510572 	 -3.600497 	 6.978144 
H 	 5.156615 	 -4.916790 	 6.209227 
H 	 0.806172 	 -6.471014 	 4.498341 
H 	 1.921562 	 -6.767879 	 5.499592 
H 	 5.425931 	 -1.059903 	 -4.612811 
H 	 6.168400 	 -2.435997 	 -4.335053 
H 	 -3.548397 	 -6.174021 	 -3.844083 
H 	 -2.969889 	 -6.361482 	 -2.471779 
H 	 -6.804821 	 4.954416 	 6.540089 
H 	 -7.107908 	 5.670089 	 5.165611 
H 	 1.081482 	 -3.897957 	 -7.157660 
H 	 0.527770 	 -3.546767 	 6.311765 
H 	 3.537436 	 2.466744 	 1.664409 
H 	 2.460531 	 3.606633 	 1.128118 
H 	 -4.498828 	 7.104861 	 5.273165 
H 	 -3.238898 	 6.431630 	 5.633669 
H 	 -2.386196 	 -6.168153 	 6.466225 
H 	 -3.709889 	 -5.736152 	 5.837208 
H 	 1.405650 	 -0.462863 	 0.681056 
H 	 -0.116035 	 -0.772119 	 -0.822674 
H 	 -4.166300 	 -3.069590 	 0.194374 
H 	 -3.325048 	 -2.239746 	 -0.826536 
H 	 -1.557674 	 4.171178 	 -1.820529 
H 	 -3.046197 	 4.339539 	 -1.915683 
H 	 4.345645 	 -6.796520 	 5.772311 
H 	 3.827951 	 -5.837033 	 4.689967 
H 	 5.547398 	 -1.888092 	 1.178092 
H 	 6.582693 	 -0.922930 	 1.777373 
H 	 4.000691 	 -4.758665 	 0.594268 
H 	 2.955882 	 -5.945176 	 0.584204 
H 	 2.362069 	 0.059133 	 5.995486 
H 	 1.907752 	 1.288167 	 5.324150 
H 	 5.886660 	 -7.401330 	 -6.792681 
H 	 5.007623 	 6.586172 	 -5.827586 
H 	 -5.908902 	 3.039155 	 3.145277 
H 	 -4.362388 	 2.447683 	 3.449835 
H 	 4.132212 	 5.723934 	 3.325627 
H 	 4.432458 	 6.460505 	 2.008826 
H 	 4.042423 	 3.242061 	 3.942496 
H 	 4.267285 	 4.288713 	 5.107781 
H 	 2.725137 	 -1.993369 	 4.637127 
H 	 2.479345 	 -2.205567 	 6.152816 
H 	 0.095691 	 -5.607504 	 -2.521980 
H 	 -0.097905 	 -6.769427 	 -3.342629 
H 	 3.849970 	 -3.176227 	 -4.238713 
H 	 2.810972 	 -3.805215 	 -3.310280 
H 	 7.083123 	 -7.681109 	 2.903166 
H 	 6.134837 	 7.022999 	 4.035163 
H 	 -1.056715 	 -4.857309 	 4.292119 
H 	 -0.739196 	 -4.859828 	 2.688135 
H 	 -1.598406 	 5.618346 	 3.542351 
H 	 -1.654347 	 4.798190 	 4.849901 
H 	 -0.658451 	 -1.979395 	 -2.860566 
H 	 0.795538 	 -2.423882 	 -2.575053 
H 	 0.949986 	 6.113400 	 -2.105217 
H 	 0.662715 	 4.690131 	 -2.920216 
H 	 -4.209810 	 -2.094595 	 -3.064866 
H 	 -5.283598 	 -0.911856 	 -2.937011 
H 	 -5.311297 	 6.566615 	 3.573349 
H 	 -4.120857 	 5.676670 	 3.246429 
H 	 -0.163325 	 1.217758 	 1.189499 
H 	 -0.251367 	 2.674857 	 1.255109 
H 	 -2.359787 	 6.775474 	 -0.875684 
H 	 -1.571731 	 -6.790355 	 -0.592949 
H 	 -7.635605 	 -5.305026 	 7.157444 
H 	 -6.405980 	 -5.815997 	 -6.914526 
H 	 -1.735770 	 -0.608235 	 7.139833 
H 	 -3.185000 	 -0.519643 	 -7.218626 
H 	 3.675235 	 3.110207 	 -5.552561 
H 	 3.182331 	 3.611376 	 -4.151110 
H 	 -1.597462 	 0.719926 	 -4.433373 
H 	 -2.570711 	 0.872025 	 -3.226463 
H 	 -1.513928 	 3.421962 	 -4.281312 
H 	 -2.991687 	 3.319385 	 -4.853512 
H 	 5.067985 	 -1.525597 	 -1.481881 
H 	 3.816011 	 -0.768822 	 -2.070086 
H 	 5.159327 	 0.823788 	 2.394937 
H 	 5.297521 	 1.299039 	 3.873167 
H 	 -5.336928 	 -6.086772 	 -2.005599 
H 	 -6.288843 	 -6.721417 	 -1.102365 
H 	 0.971999 	 2.555398 	 -2.726648 
H 	 0.627473 	 2.575063 	 -4.220082 
H 	 -0.809052 	 -3.063379 	 1.464834 
H 	 0.657112 	 -3.635654 	 1.444563 
H 	 -6.623942 	 -1.904712 	 5.761043 
H 	 7.013666 	 -1.414107 	 6.469333 
H 	 -2.255896 	 -2.577817 	 -4.383867 
H 	 -2.530590 	 -3.697737 	 -3.261573 
H 	 -1.127728 	 5.032808 	 7.172386 
H 	 -1.875830 	 4.769471 	 -6.354954 
H 	 -4.926091 	 0.201746 	 -5.829645 
H 	 -3.437076 	 0.923415 	 -5.799824 
H 	 -7.112175 	 -2.289960 	 -1.890206 
H 	 6.817276 	 -3.445528 	 -1.686516 
H 	 3.269031 	 -7.289349 	 -5.099555 
H 	 2.957804 	 6.108245 	 -5.064795 
H 	 5.860080 	 -3.899256 	 1.879553 
H 	 6.295052 	 -3.404952 	 0.356748 
H 	 6.505596 	 -6.324854 	 0.232571 
H 	 6.686122 	 7.108078 	 0.201008 
H 	 -7.614517 	 -2.885342 	 3.247619 
H 	 6.285242 	 -3.911819 	 4.043074 
H 	 2.046044 	 2.193840 	 -0.243678 
H 	 1.035245 	 1.001939 	 -0.546852 
H 	 4.634558 	 -5.197532 	 -1.045139 
H 	 5.723318 	 -6.040430 	 -1.770618 
H 	 5.366709 	 1.327520 	 -5.592076 
H 	 6.118963 	 1.658365 	 -4.288222 
H 	 -1.421505 	 2.697159 	 6.627702 
H 	 -2.513164 	 3.596813 	 6.271829 
H 	 -5.814698 	 -4.936600 	 1.271397 
H 	 -5.730022 	 -4.713585 	 -0.256114 
H 	 6.083870 	 1.799779 	 -2.223127 
H 	 6.686685 	 3.289409 	 -2.481078 
H 	 2.850549 	 7.000184 	 -2.729572 
H 	 2.757416 	 -6.968810 	 -1.605380 
H 	 6.318170 	 -6.126156 	 -4.326190 
H 	 5.409362 	 -5.268067 	 -5.229333 
H 	 2.979580 	 -2.652726 	 -1.512983 
H 	 2.575542 	 -4.069741 	 -1.019845 
H 	 -2.027606 	 -4.053743 	 5.957323 
H 	 -1.389257 	 -2.725956 	 5.239859 
H 	 -0.202065 	 -5.589734 	 -6.292678 
H 	 0.183672 	 -5.172604 	 -4.819240 
H 	 -0.701138 	 1.749940 	 -6.314148 
H 	 0.124084 	 1.152138 	 7.349917 
H 	 -1.098278 	 6.101584 	 -3.290726 
H 	 -1.631334 	 6.627559 	 -4.734454 
H 	 0.179339 	 -0.242054 	 -3.928681 
H 	 0.686909 	 -0.103609 	 -5.309986 
H 	 -2.282124 	 -4.619349 	 -0.746586 
H 	 -0.948340 	 -4.911558 	 -0.073119 
H 	 2.979765 	 -0.330249 	 0.253367 
H 	 -0.973399 	 -1.225874 	 3.486833 
H 	 -4.177370 	 6.406955 	 -4.527222 
H 	 -4.673552 	 4.872660 	 -4.494399 
H 	 6.508194 	 6.045567 	 -2.971725 
H 	 5.339916 	 6.732867 	 -3.821267 
H 	 4.470340 	 -1.485411 	 -6.980530 
H 	 4.510910 	 -1.497912 	 6.328094 
H 	 0.773434 	 4.854102 	 2.056017 
H 	 0.861231 	 5.334375 	 0.457695 
H 	 -0.531336 	 -0.291150 	 4.697038 
O 	 -5.778075 	 4.855003 	 0.492491 
O 	 6.090633 	 1.164278 	 5.425941 
O 	 -3.992348 	 4.025581 	 7.082614 
O 	 7.033516 	 4.829361 	 -1.565238 
O 	 -4.914538 	 3.153417 	 -4.505025 
O 	 -6.827907 	 2.473754 	 -6.551095 
O 	 -2.553458 	 0.652911 	 -1.024314 
O 	 -4.812395 	 -3.886003 	 -6.584535 
O 	 -2.638899 	 2.117452 	 3.646234 
O 	 -3.598176 	 -6.160991 	 -5.721039 
O 	 4.631748 	 5.440810 	 -0.044666 
O 	 -2.148036 	 -3.055842 	 -5.981693 
O 	 3.563903 	 -5.803762 	 -5.897603 
O 	 -6.724079 	 -3.150260 	 -4.573624 
O 	 1.113339 	 5.116796 	 3.930804 
O 	 -6.894577 	 5.218732 	 -6.386692 
O 	 4.024051 	 2.012294 	 -7.136753 
O 	 -4.228136 	 -0.670449 	 4.392238 
O 	 -1.457912 	 -1.641416 	 1.878944 
O 	 2.029305 	 -2.461421 	 3.040029 
O 	 -1.029815 	 6.874278 	 2.252431 
O 	 3.000332 	 -5.157579 	 3.177951 
O 	 -6.409276 	 1.866352 	 0.224360 
O 	 -4.098799 	 5.925925 	 -1.368844 
O 	 3.075418 	 0.642394 	 -3.140838 
O 	 1.858795 	 5.548953 	 -6.991800 
O 	 -0.748982 	 -6.704842 	 7.241074 
O 	 1.751478 	 -7.727974 	 1.334325 
O 	 -5.849069 	 -6.396344 	 5.003841 
O 	 -6.786130 	 -1.017302 	 2.571143 
O 	 5.205820 	 4.454850 	 6.819651 
O 	 -6.401168 	 -0.595963 	 -5.311289 
O 	 6.996512 	 3.543786 	 2.664190 
O 	 -5.559194 	 -3.383137 	 5.449063 
O 	 -5.190148 	 1.114234 	 -2.460268 
O 	 5.561849 	 1.640562 	 -0.245437 
O 	 -4.335063 	 0.396896 	 1.324806 
O 	 2.335835 	 1.806732 	 3.332821 
O 	 1.871533 	 -1.301553 	 -5.980382 
O 	 5.846550 	 -4.250993 	 6.341574 
O 	 1.083777 	 -7.174978 	 5.167132 
O 	 5.237164 	 -2.036959 	 -4.487379 
O 	 -3.508767 	 -5.687133 	 -2.984584 
O 	 -7.217027 	 4.831346 	 5.656093 
O 	 1.338877 	 -3.493333 	 6.916748 
O 	 3.280023 	 3.067965 	 0.882903 
O 	 -4.055334 	 6.752303 	 6.062420 
O 	 -2.920796 	 -5.393535 	 6.283483 
O 	 -0.190728 	 -0.312193 	 0.046168 
O 	 -3.272527 	 -2.933351 	 -0.120774 
O 	 -2.373653 	 3.636925 	 -1.810204 
O 	 3.735981 	 -6.098425 	 5.656675 
O 	 5.729574 	 -0.873200 	 1.335221 
O 	 3.294616 	 -5.201615 	 0.100857 
O 	 1.838324 	 0.861794 	 6.147181 
O 	 5.724608 	 6.563196 	 -6.464412 
O 	 -5.286921 	 2.552324 	 3.799702 
O 	 3.946023 	 6.558667 	 2.849193 
O 	 3.939378 	 4.201687 	 4.192898 
O 	 2.932911 	 -1.610065 	 5.558265 
O 	 0.579788 	 -6.040741 	 -3.286770 
O 	 3.017342 	 -3.753903 	 -4.270490 
O 	 7.090803 	 6.901185 	 3.844919 
O 	 -0.619854 	 -5.372239 	 3.535655 
O 	 -2.150924 	 5.432461 	 4.359672 
O 	 0.255941 	 -1.668769 	 -2.887630 
O 	 0.331042 	 5.610134 	 -2.666908 
O 	 -5.129913 	 -1.844384 	 -2.744253 
O 	 -4.949673 	 6.024822 	 2.873973 
O 	 -0.428315 	 1.897697 	 1.823164 
O 	 -1.483854 	 7.090513 	 -0.604694 
O 	 -7.084620 	 -6.104640 	 7.367454 
O 	 -2.597922 	 -1.059018 	 7.039018 
O 	 3.680789 	 3.861357 	 -4.956915 
O 	 -2.541162 	 0.819390 	 -4.175980 
O 	 -2.043390 	 3.378860 	 -5.103630 
O 	 4.098391 	 -1.325155 	 -1.320863 
O 	 5.153549 	 1.623212 	 2.947647 
O 	 -6.261632 	 -5.941199 	 -1.651219 
O 	 0.884336 	 3.126577 	 -3.484547 
O 	 -0.259766 	 -3.847530 	 1.223375 
O 	 -7.166362 	 -1.091567 	 5.846553 
O 	 -2.463315 	 -2.728911 	 -3.381402 
O 	 -1.279104 	 5.385468 	 -6.839590 
O 	 -4.161025 	 0.519565 	 -6.372204 
O 	 6.990300 	 -2.510031 	 -1.464049 
O 	 3.565839 	 6.755098 	 -4.599427 
O 	 5.566668 	 -3.568449 	 0.993600 
O 	 6.804054 	 -7.048601 	 0.798603 
O 	 6.937292 	 -3.806030 	 3.281906 
O 	 1.409089 	 1.846794 	 -0.918168 
O 	 5.595309 	 -5.237210 	 -1.250693 
O 	 6.095234 	 1.011567 	 -5.020472 
O 	 -1.645627 	 3.303810 	 5.911158 
O 	 -5.542283 	 -4.312514 	 0.602992 
O 	 6.452465 	 2.387157 	 -2.861262 
O 	 2.789914 	 6.995064 	 -1.754280 
O 	 6.292341 	 -5.249959 	 -4.797573 
O 	 2.341778 	 -3.382122 	 -1.696960 
O 	 -1.214554 	 -3.642368 	 5.631749 
O 	 0.107546 	 -4.811420 	 -5.763801 
O 	 -0.756377 	 1.301616 	 -7.188222 
O 	 -1.896643 	 6.514486 	 -3.791966 
O 	 0.301408 	 0.452151 	 -4.588169 
O 	 -1.462099 	 -5.149393 	 -0.864731 
O 	 2.366055 	 -0.378683 	 1.032547 
O 	 -4.968021 	 5.826785 	 -4.493076 
O 	 6.245995 	 6.900120 	 -3.408250 
O 	 5.087938 	 -1.571801 	 7.191005 
O 	 0.884605 	 4.571337 	 1.070941 
O 	 -0.570366 	 -1.247131 	 4.401348 
K 	 -5.639991 	 1.421613 	 6.044141 
