333
conformation = 56
H 	 -5.901383 	 3.923681 	 0.433678 
H 	 -5.671267 	 5.259945 	 1.414727 
H 	 5.490962 	 0.973626 	 6.210120 
H 	 6.592703 	 0.365229 	 5.371765 
H 	 -4.209317 	 3.861840 	 -6.957105 
H 	 -4.145296 	 5.061351 	 6.862581 
H 	 6.167453 	 4.996700 	 -1.099700 
H 	 -7.285638 	 4.714532 	 -0.862779 
H 	 -5.048050 	 2.622953 	 -3.711704 
H 	 -5.546368 	 2.876447 	 -5.179157 
H 	 -7.553284 	 2.063884 	 -6.110047 
H 	 -6.972347 	 3.517817 	 -6.497605 
H 	 -1.680500 	 0.422376 	 -0.712516 
H 	 -2.563867 	 1.659889 	 -1.126176 
H 	 -5.331360 	 -3.378725 	 -5.871268 
H 	 -3.901986 	 -3.593731 	 -6.323440 
H 	 -1.884436 	 2.028077 	 3.021823 
H 	 -2.184872 	 2.399257 	 4.451370 
H 	 -3.973176 	 -5.321138 	 -6.221637 
H 	 -2.752304 	 -6.201577 	 -6.196656 
H 	 4.210618 	 4.617583 	 0.189085 
H 	 4.073809 	 5.939615 	 -0.685438 
H 	 -1.344851 	 -3.519808 	 -6.211960 
H 	 -2.128489 	 -2.270041 	 -6.701161 
H 	 3.247356 	 -5.696522 	 -6.798067 
H 	 3.111930 	 -5.056274 	 -5.385821 
H 	 -7.195405 	 -3.945004 	 -4.404179 
H 	 -6.172737 	 -2.894871 	 -3.770887 
H 	 2.005681 	 4.913855 	 4.088933 
H 	 1.041618 	 6.135828 	 4.076235 
H 	 7.214581 	 5.649352 	 -5.985303 
H 	 -6.173896 	 5.602180 	 -5.808887 
H 	 4.528913 	 2.778523 	 7.341553 
H 	 3.172552 	 1.899131 	 7.277269 
H 	 -3.411104 	 -0.346425 	 4.852504 
H 	 -4.295792 	 -1.562659 	 4.609365 
H 	 -0.908081 	 -0.982403 	 1.202282 
H 	 -2.326058 	 -1.609651 	 1.497240 
H 	 1.235552 	 -1.973720 	 3.366407 
H 	 2.381761 	 -1.795469 	 2.392079 
H 	 -1.373390 	 6.955465 	 1.304588 
H 	 -1.482171 	 -7.274814 	 2.805812 
H 	 2.679786 	 -4.194580 	 3.140399 
H 	 2.325658 	 -5.659732 	 2.807408 
H 	 -6.041211 	 1.216522 	 0.718905 
H 	 -7.380565 	 1.875367 	 0.295006 
H 	 -4.629928 	 6.334693 	 -2.084675 
H 	 -4.728798 	 5.644080 	 -0.666579 
H 	 2.461953 	 0.251860 	 -3.762641 
H 	 2.606190 	 1.063322 	 -2.441081 
H 	 1.814250 	 4.767037 	 -6.442256 
H 	 0.902878 	 5.761333 	 -7.155394 
H 	 0.007051 	 -6.772472 	 6.553061 
H 	 -1.019243 	 -7.536858 	 -7.253981 
H 	 2.451340 	 6.794352 	 1.881407 
H 	 0.896164 	 7.113724 	 1.851193 
H 	 -6.656523 	 -6.638143 	 4.491054 
H 	 -6.216941 	 -6.343966 	 5.894007 
H 	 -5.942549 	 -1.096021 	 2.071766 
H 	 -6.455171 	 -0.432035 	 3.297472 
H 	 5.130779 	 5.247925 	 7.378122 
H 	 6.139458 	 4.501099 	 6.395574 
H 	 -6.723659 	 -1.397831 	 -4.970363 
H 	 -7.136208 	 0.151024 	 -5.084945 
H 	 7.131093 	 3.629465 	 3.622451 
H 	 6.285126 	 2.874065 	 2.613102 
H 	 -5.978610 	 -4.138837 	 5.056952 
H 	 -5.306563 	 -3.693366 	 6.332306 
H 	 -4.302424 	 0.903566 	 -2.104007 
H 	 -5.689667 	 1.622971 	 -1.722353 
H 	 5.641376 	 0.873179 	 0.288191 
H 	 4.881116 	 2.245866 	 0.171508 
H 	 -3.739408 	 0.237051 	 2.105005 
H 	 -3.764155 	 0.414629 	 0.502848 
H 	 1.430346 	 2.189279 	 3.176642 
H 	 2.418477 	 1.076230 	 2.757999 
H 	 2.423034 	 -1.960024 	 -5.522748 
H 	 1.644158 	 -1.546637 	 -6.903152 
H 	 5.415448 	 -3.633338 	 7.012757 
H 	 5.196599 	 -4.971399 	 6.249234 
H 	 0.763175 	 -6.544400 	 4.505189 
H 	 1.932944 	 -6.670041 	 5.501073 
H 	 5.384027 	 -1.077220 	 -4.649473 
H 	 6.132842 	 -2.383691 	 -4.401332 
H 	 -3.622450 	 -6.181940 	 -3.853040 
H 	 -2.920481 	 -6.214914 	 -2.460548 
H 	 -6.818026 	 5.027633 	 6.553096 
H 	 -7.015158 	 5.733158 	 5.235747 
H 	 1.018164 	 -3.904043 	 -7.158044 
H 	 0.558740 	 -3.507386 	 6.299178 
H 	 3.458943 	 2.536910 	 1.615098 
H 	 2.498504 	 3.626845 	 1.209288 
H 	 -4.509329 	 7.110448 	 5.259683 
H 	 -3.150415 	 6.446651 	 5.719048 
H 	 -2.369572 	 -6.127233 	 6.563589 
H 	 -3.717098 	 -5.598408 	 5.798493 
H 	 1.431809 	 -0.404878 	 0.650977 
H 	 -0.090091 	 -0.799394 	 -0.757249 
H 	 -4.208788 	 -2.888990 	 0.268765 
H 	 -3.317987 	 -2.212647 	 -0.803272 
H 	 -1.530385 	 4.181027 	 -1.774887 
H 	 -3.050142 	 4.445463 	 -1.866840 
H 	 4.448037 	 -6.760378 	 5.765494 
H 	 3.840507 	 -5.899139 	 4.676908 
H 	 5.548575 	 -1.792192 	 1.189551 
H 	 6.633182 	 -0.734056 	 1.658915 
H 	 4.029177 	 -4.717701 	 0.683237 
H 	 2.999678 	 -5.982545 	 0.608249 
H 	 2.409473 	 0.095172 	 6.015089 
H 	 1.867094 	 1.291380 	 5.206826 
H 	 5.861766 	 -7.421928 	 -6.825007 
H 	 5.001252 	 6.649197 	 -5.748066 
H 	 -5.866935 	 2.998847 	 3.138161 
H 	 -4.396255 	 2.608926 	 3.435600 
H 	 4.098980 	 5.776895 	 3.395099 
H 	 4.411857 	 6.426297 	 1.991062 
H 	 4.197005 	 3.353322 	 3.904928 
H 	 4.313625 	 4.348795 	 5.136377 
H 	 2.788212 	 -1.913323 	 4.659021 
H 	 2.460217 	 -2.207893 	 6.178945 
H 	 0.071311 	 -5.519467 	 -2.547766 
H 	 -0.120585 	 -6.672638 	 -3.348831 
H 	 3.850119 	 -3.217838 	 -4.298799 
H 	 2.749609 	 -3.812820 	 -3.303993 
H 	 7.034683 	 -7.572178 	 2.955358 
H 	 6.104987 	 7.093447 	 4.018027 
H 	 -0.962287 	 -4.759472 	 4.307126 
H 	 -0.694981 	 -4.779963 	 2.717648 
H 	 -1.646383 	 5.789706 	 3.610485 
H 	 -1.626820 	 4.713261 	 4.796391 
H 	 -0.691450 	 -1.923743 	 -2.880027 
H 	 0.819523 	 -2.351056 	 -2.468739 
H 	 0.959183 	 6.124846 	 -2.096116 
H 	 0.738862 	 4.785023 	 -2.908196 
H 	 -4.246013 	 -1.971249 	 -3.137478 
H 	 -5.250821 	 -0.813676 	 -2.981803 
H 	 -5.374512 	 6.619710 	 3.597886 
H 	 -4.078498 	 5.770421 	 3.252097 
H 	 -0.093575 	 1.242170 	 1.171791 
H 	 -0.218840 	 2.771773 	 1.271669 
H 	 -2.387589 	 6.881115 	 -0.893334 
H 	 -1.598678 	 -6.798852 	 -0.551605 
H 	 -7.643464 	 -5.310084 	 7.076954 
H 	 -6.438776 	 -5.811984 	 -6.815526 
H 	 -1.708443 	 -0.537699 	 7.130493 
H 	 -3.188882 	 -0.518153 	 -7.216441 
H 	 3.628874 	 3.150226 	 -5.609277 
H 	 3.104674 	 3.607358 	 -4.187094 
H 	 -1.607891 	 0.757754 	 -4.481093 
H 	 -2.464373 	 0.877783 	 -3.169142 
H 	 -1.551817 	 3.602423 	 -4.287358 
H 	 -2.983820 	 3.425360 	 -4.844531 
H 	 5.009634 	 -1.484812 	 -1.488312 
H 	 3.854534 	 -0.647768 	 -2.088361 
H 	 5.302596 	 0.829926 	 2.456485 
H 	 5.241357 	 1.401255 	 3.857695 
H 	 -5.333443 	 -5.959702 	 -1.963885 
H 	 -6.449666 	 -6.733269 	 -1.087674 
H 	 1.022510 	 2.552585 	 -2.724958 
H 	 0.575104 	 2.674335 	 -4.271009 
H 	 -0.788950 	 -2.994308 	 1.461255 
H 	 0.698553 	 -3.589561 	 1.429454 
H 	 -6.585690 	 -1.891613 	 5.774766 
H 	 7.003952 	 -1.400707 	 6.358410 
H 	 -2.287110 	 -2.528052 	 -4.335902 
H 	 -2.458591 	 -3.659066 	 -3.314497 
H 	 -1.127597 	 5.136178 	 7.103377 
H 	 -1.890412 	 4.758664 	 -6.442191 
H 	 -4.824529 	 0.148598 	 -5.774292 
H 	 -3.482853 	 1.011432 	 -5.787404 
H 	 -7.060565 	 -2.230458 	 -1.979251 
H 	 6.739646 	 -3.378377 	 -1.689573 
H 	 3.311854 	 -7.269413 	 -5.075573 
H 	 3.000459 	 6.164413 	 -5.011854 
H 	 5.877899 	 -3.835056 	 1.903113 
H 	 6.267238 	 -3.437746 	 0.329612 
H 	 6.503482 	 -6.167513 	 0.279516 
H 	 6.673260 	 -7.689024 	 0.104074 
H 	 -7.646385 	 -2.842192 	 3.260515 
H 	 6.362574 	 -3.895912 	 4.040020 
H 	 2.006229 	 2.197349 	 -0.186955 
H 	 0.967523 	 1.042023 	 -0.636491 
H 	 4.628848 	 -5.140677 	 -1.034944 
H 	 5.633192 	 -6.031250 	 -1.724384 
H 	 5.337584 	 1.308266 	 -5.568198 
H 	 6.151483 	 1.732215 	 -4.271944 
H 	 -1.337455 	 2.675288 	 6.618373 
H 	 -2.612887 	 3.559138 	 6.255224 
H 	 -5.836910 	 -4.875644 	 1.316886 
H 	 -5.716218 	 -4.784675 	 -0.207332 
H 	 6.079008 	 1.817453 	 -2.180779 
H 	 6.728829 	 3.266741 	 -2.429592 
H 	 2.745532 	 6.946301 	 -2.757926 
H 	 2.792649 	 -6.866695 	 -1.636736 
H 	 6.359287 	 -6.065994 	 -4.365769 
H 	 5.426877 	 -5.199334 	 -5.238765 
H 	 3.010372 	 -2.649512 	 -1.458113 
H 	 2.524726 	 -4.034035 	 -1.029540 
H 	 -2.046956 	 -3.976032 	 6.054283 
H 	 -1.444227 	 -2.752859 	 5.296255 
H 	 -0.179607 	 -5.548220 	 -6.248453 
H 	 0.228218 	 -5.058743 	 -4.829289 
H 	 -0.760333 	 1.849598 	 -6.359691 
H 	 0.116712 	 1.172567 	 7.333383 
H 	 -1.093964 	 6.138328 	 -3.300755 
H 	 -1.651477 	 6.652696 	 -4.683756 
H 	 0.191558 	 -0.230654 	 -3.880084 
H 	 0.742895 	 -0.082410 	 -5.260977 
H 	 -2.232414 	 -4.587652 	 -0.706661 
H 	 -0.878471 	 -4.852852 	 -0.122083 
H 	 2.938703 	 -0.444508 	 0.216417 
H 	 -0.973163 	 -1.187278 	 3.503729 
H 	 -4.130161 	 6.399527 	 -4.522590 
H 	 -4.685345 	 4.939246 	 -4.465656 
H 	 6.480632 	 6.068182 	 -3.021496 
H 	 5.351478 	 6.743677 	 -3.734200 
H 	 4.393514 	 -1.376795 	 -7.037873 
H 	 4.541300 	 -1.436982 	 6.404561 
H 	 0.845756 	 4.808551 	 1.989978 
H 	 0.941126 	 5.403157 	 0.496536 
H 	 -0.629000 	 -0.258895 	 4.638387 
O 	 -5.781969 	 4.893487 	 0.487995 
O 	 6.106586 	 1.215343 	 5.443631 
O 	 -3.989308 	 4.079839 	 7.047914 
O 	 7.010232 	 4.872356 	 -1.589738 
O 	 -4.921240 	 3.199070 	 -4.501352 
O 	 -6.828911 	 2.521615 	 -6.555732 
O 	 -2.568288 	 0.687764 	 -1.012905 
O 	 -4.816040 	 -3.854583 	 -6.583921 
O 	 -2.650325 	 2.158380 	 3.643180 
O 	 -3.601870 	 -6.109568 	 -5.730553 
O 	 4.625018 	 5.467788 	 -0.040855 
O 	 -2.151445 	 -3.010849 	 -5.993034 
O 	 3.575861 	 -5.746057 	 -5.910550 
O 	 -6.717725 	 -3.079580 	 -4.590096 
O 	 1.095527 	 5.179423 	 3.896930 
O 	 -6.901748 	 5.285017 	 -6.392614 
O 	 4.028592 	 2.051870 	 -7.135351 
O 	 -4.212530 	 -0.620833 	 4.381494 
O 	 -1.475736 	 -1.593713 	 1.894472 
O 	 2.050583 	 -2.412262 	 3.043075 
O 	 -1.046003 	 6.909651 	 2.262045 
O 	 2.998353 	 -5.114470 	 3.204594 
O 	 -6.396052 	 1.910846 	 0.226753 
O 	 -4.097632 	 5.958085 	 -1.357289 
O 	 3.085856 	 0.681700 	 -3.169807 
O 	 1.846374 	 5.587400 	 -6.999270 
O 	 -0.744690 	 -6.658944 	 7.236140 
O 	 1.733928 	 -7.663093 	 1.330252 
O 	 -5.865501 	 -6.362398 	 4.997195 
O 	 -6.778728 	 -0.966660 	 2.546169 
O 	 5.217923 	 4.499903 	 6.806151 
O 	 -6.413389 	 -0.544322 	 -5.308730 
O 	 6.973390 	 3.581462 	 2.661667 
O 	 -5.577056 	 -3.331095 	 5.433107 
O 	 -5.161990 	 1.169591 	 -2.461968 
O 	 5.564812 	 1.684156 	 -0.242213 
O 	 -4.341471 	 0.441507 	 1.318700 
O 	 2.335215 	 1.866366 	 3.303319 
O 	 1.860934 	 -1.259256 	 -5.978008 
O 	 5.834627 	 -4.227546 	 6.334324 
O 	 1.110015 	 -7.135451 	 5.182592 
O 	 5.251032 	 -2.005405 	 -4.490007 
O 	 -3.514518 	 -5.674873 	 -2.982293 
O 	 -7.212694 	 4.889757 	 5.670790 
O 	 1.300462 	 -3.433926 	 6.897794 
O 	 3.278173 	 3.120160 	 0.863111 
O 	 -4.054524 	 6.795561 	 6.081931 
O 	 -2.927036 	 -5.338861 	 6.282897 
O 	 -0.200271 	 -0.261237 	 0.045490 
O 	 -3.258156 	 -2.882753 	 -0.118047 
O 	 -2.378418 	 3.696717 	 -1.828485 
O 	 3.735865 	 -6.049262 	 5.647284 
O 	 5.690422 	 -0.828308 	 1.327563 
O 	 3.297015 	 -5.154725 	 0.098129 
O 	 1.845431 	 0.902077 	 6.168926 
O 	 5.735746 	 6.610083 	 -6.482071 
O 	 -5.310413 	 2.619767 	 3.797693 
O 	 3.937973 	 6.610445 	 2.851817 
O 	 3.925925 	 4.244552 	 4.192245 
O 	 2.944722 	 -1.557772 	 5.557646 
O 	 0.581474 	 -5.981461 	 -3.267394 
O 	 3.017215 	 -3.685608 	 -4.277070 
O 	 7.070659 	 6.937899 	 3.847968 
O 	 -0.624285 	 -5.313861 	 3.537020 
O 	 -2.150858 	 5.464427 	 4.382881 
O 	 0.256197 	 -1.633931 	 -2.878970 
O 	 0.330104 	 5.642689 	 -2.671338 
O 	 -5.137914 	 -1.770726 	 -2.722908 
O 	 -4.938923 	 6.066612 	 2.886866 
O 	 -0.401172 	 1.945443 	 1.811576 
O 	 -1.474968 	 7.124789 	 -0.607430 
O 	 -7.102508 	 -6.053833 	 7.364587 
O 	 -2.570662 	 -1.017313 	 7.043743 
O 	 3.656483 	 3.924624 	 -4.952957 
O 	 -2.546604 	 0.868119 	 -4.168464 
O 	 -2.046271 	 3.417510 	 -5.103881 
O 	 4.100184 	 -1.285758 	 -1.343651 
O 	 5.138527 	 1.674415 	 2.937582 
O 	 -6.275642 	 -5.892680 	 -1.649393 
O 	 0.869239 	 3.176245 	 -3.485960 
O 	 -0.233061 	 -3.804071 	 1.230008 
O 	 -7.160236 	 -1.068353 	 5.814650 
O 	 -2.488412 	 -2.689014 	 -3.390816 
O 	 -1.271633 	 5.426247 	 -6.837199 
O 	 -4.154508 	 0.578991 	 -6.383667 
O 	 7.000088 	 -2.458611 	 -1.458236 
O 	 3.571702 	 6.827142 	 -4.579303 
O 	 5.577213 	 -3.522962 	 1.018831 
O 	 6.786514 	 -6.982279 	 0.789952 
O 	 6.917215 	 -3.766613 	 3.285953 
O 	 1.413972 	 1.879847 	 -0.937824 
O 	 5.598396 	 -5.165117 	 -1.255057 
O 	 6.102873 	 1.056000 	 -5.015282 
O 	 -1.616403 	 3.340510 	 5.906133 
O 	 -5.553764 	 -4.267963 	 0.608065 
O 	 6.438117 	 2.446468 	 -2.864139 
O 	 2.768293 	 7.041182 	 -1.778614 
O 	 6.298039 	 -5.203786 	 -4.783102 
O 	 2.340944 	 -3.354063 	 -1.703828 
O 	 -1.212445 	 -3.597223 	 5.622481 
O 	 0.120893 	 -4.767197 	 -5.766827 
O 	 -0.758628 	 1.353445 	 -7.181815 
O 	 -1.901731 	 6.563942 	 -3.769958 
O 	 0.292458 	 0.481893 	 -4.577332 
O 	 -1.446660 	 -5.116956 	 -0.883928 
O 	 2.375675 	 -0.324228 	 1.011722 
O 	 -4.960057 	 5.877371 	 -4.492889 
O 	 6.242344 	 6.938167 	 -3.387663 
O 	 5.087497 	 -1.525525 	 7.187913 
O 	 0.886707 	 4.610613 	 1.067617 
O 	 -0.586579 	 -1.189520 	 4.417988 
K 	 -5.646390 	 1.463957 	 6.049548 
