333
conformation = 20
H 	 -5.886433 	 3.943253 	 0.709551 
H 	 -5.808362 	 5.414005 	 1.344142 
H 	 5.479800 	 1.097646 	 6.097522 
H 	 6.629568 	 0.393048 	 5.396302 
H 	 -3.847886 	 4.034710 	 -6.634961 
H 	 -4.323404 	 4.978539 	 7.049384 
H 	 6.430602 	 5.043008 	 -0.753488 
H 	 -6.908451 	 5.077431 	 -0.917721 
H 	 -4.921869 	 2.603847 	 -3.742698 
H 	 -5.513510 	 2.789729 	 -5.193240 
H 	 -7.493498 	 2.007677 	 -6.066811 
H 	 -6.906646 	 3.519106 	 -6.426133 
H 	 -1.732581 	 0.341256 	 -0.653662 
H 	 -2.186748 	 1.804959 	 -1.090296 
H 	 -5.374026 	 -3.704023 	 -5.798621 
H 	 -4.006286 	 -3.205776 	 -6.256940 
H 	 -1.959820 	 2.287441 	 2.920949 
H 	 -2.476588 	 3.027301 	 4.288000 
H 	 -3.851152 	 -5.518707 	 -6.299410 
H 	 -2.652130 	 -6.281074 	 -6.027564 
H 	 4.229527 	 4.921334 	 0.381546 
H 	 4.032304 	 6.264366 	 -0.541673 
H 	 -1.328501 	 -3.525874 	 -5.965444 
H 	 -2.062447 	 -2.368922 	 -6.733737 
H 	 3.188619 	 -5.505803 	 -6.776895 
H 	 3.218412 	 -4.974598 	 -5.266418 
H 	 -7.329253 	 -3.918358 	 -4.155323 
H 	 -6.239555 	 -2.868771 	 -3.663855 
H 	 2.190593 	 4.883511 	 4.158204 
H 	 1.148262 	 5.934430 	 4.620463 
H 	 7.244706 	 5.821110 	 -6.426438 
H 	 -6.189085 	 5.631368 	 -5.723157 
H 	 4.198613 	 3.095919 	 7.322949 
H 	 3.267542 	 1.747943 	 7.193977 
H 	 -3.531102 	 -0.645715 	 5.110012 
H 	 -4.584945 	 -1.557232 	 4.615522 
H 	 -0.952741 	 -1.069938 	 0.965670 
H 	 -2.319102 	 -1.901028 	 1.446400 
H 	 0.970479 	 -2.149388 	 3.284015 
H 	 2.088942 	 -1.706705 	 2.278053 
H 	 -1.259543 	 7.163104 	 1.198782 
H 	 -0.899045 	 -6.965034 	 2.524734 
H 	 2.382826 	 -4.332921 	 3.021665 
H 	 2.533125 	 -5.930611 	 2.835748 
H 	 -6.132808 	 1.415119 	 1.014571 
H 	 -7.437044 	 1.889947 	 0.266136 
H 	 -4.541639 	 5.744194 	 -2.277051 
H 	 -4.586123 	 5.680801 	 -0.651922 
H 	 2.685456 	 0.870342 	 -3.912183 
H 	 2.308339 	 1.144604 	 -2.343429 
H 	 2.002719 	 4.787363 	 -6.657490 
H 	 1.063766 	 5.767723 	 -7.401101 
H 	 -0.167567 	 -6.575542 	 6.517478 
H 	 -0.956057 	 -7.549737 	 -7.401873 
H 	 2.242005 	 6.897163 	 2.120457 
H 	 0.876875 	 -7.470968 	 1.518524 
H 	 -6.442393 	 -6.384145 	 4.316417 
H 	 -6.378724 	 -6.104731 	 5.823090 
H 	 -6.011519 	 -0.866534 	 2.109352 
H 	 -6.487131 	 -0.250015 	 3.358741 
H 	 5.169682 	 5.379227 	 7.434081 
H 	 6.009635 	 4.491928 	 6.408222 
H 	 -6.580554 	 -1.455502 	 -5.419240 
H 	 -7.191175 	 -0.081700 	 -5.229518 
H 	 7.016079 	 3.880611 	 3.618441 
H 	 6.624722 	 2.943996 	 2.457304 
H 	 -5.840825 	 -4.123003 	 5.156617 
H 	 -5.255221 	 -3.545332 	 6.449997 
H 	 -4.480619 	 0.930644 	 -1.948783 
H 	 -5.960878 	 1.277224 	 -1.754838 
H 	 5.397192 	 0.708286 	 0.003524 
H 	 4.741774 	 2.211074 	 -0.113125 
H 	 -3.927944 	 0.293451 	 2.176156 
H 	 -3.687929 	 0.835032 	 0.731965 
H 	 1.405778 	 1.908797 	 2.959267 
H 	 2.698007 	 1.034168 	 3.016834 
H 	 1.659750 	 -1.616191 	 -5.166246 
H 	 1.627323 	 -1.820997 	 -6.698039 
H 	 5.959190 	 -3.069066 	 6.478261 
H 	 4.995797 	 -4.282224 	 6.302578 
H 	 0.665151 	 -6.187064 	 4.524453 
H 	 1.867566 	 -6.814210 	 5.296679 
H 	 5.383533 	 -0.827492 	 -4.369592 
H 	 5.993223 	 -2.280299 	 -4.150625 
H 	 -3.392277 	 -5.490600 	 -3.992444 
H 	 -3.112884 	 -6.362842 	 -2.846136 
H 	 -6.798666 	 5.284474 	 6.327976 
H 	 -7.370392 	 5.531983 	 4.902297 
H 	 1.456034 	 -3.851736 	 -7.033026 
H 	 0.573520 	 -3.459128 	 6.631296 
H 	 3.508783 	 3.045077 	 1.947787 
H 	 2.412200 	 3.678306 	 0.919493 
H 	 -4.810648 	 -7.531566 	 5.712673 
H 	 -3.641980 	 6.669348 	 5.085573 
H 	 -2.250776 	 -5.976321 	 6.415438 
H 	 -3.706328 	 -5.920893 	 5.920054 
H 	 1.419280 	 -0.335939 	 0.655254 
H 	 -0.023234 	 -0.665073 	 -0.834271 
H 	 -3.936139 	 -3.567443 	 -0.010232 
H 	 -3.772583 	 -2.270170 	 -0.797026 
H 	 -1.625732 	 4.314699 	 -1.850702 
H 	 -3.096172 	 4.225941 	 -1.648877 
H 	 4.065712 	 -6.823418 	 5.359286 
H 	 3.396330 	 -5.615116 	 4.866383 
H 	 5.292006 	 -1.564016 	 1.202751 
H 	 6.557157 	 -1.055821 	 1.976033 
H 	 3.916489 	 -4.641521 	 0.614613 
H 	 2.721774 	 -5.641913 	 0.693738 
H 	 1.977063 	 0.097376 	 5.822713 
H 	 1.995754 	 1.455777 	 5.277666 
H 	 6.180077 	 -7.343052 	 -6.291012 
H 	 4.895171 	 6.794307 	 -5.796324 
H 	 -5.669355 	 3.163368 	 3.123166 
H 	 -4.269165 	 2.340515 	 3.447628 
H 	 4.007078 	 5.679203 	 2.917750 
H 	 4.501531 	 6.826425 	 2.004482 
H 	 3.484981 	 3.421923 	 4.133755 
H 	 4.244375 	 4.334366 	 5.153626 
H 	 2.768527 	 -1.754037 	 4.547258 
H 	 2.367437 	 -2.275839 	 5.957995 
H 	 0.136590 	 -5.672175 	 -2.549260 
H 	 0.289905 	 -6.961833 	 -3.201820 
H 	 3.756030 	 -2.974206 	 -4.258055 
H 	 2.728582 	 -3.699473 	 -3.314064 
H 	 -7.562747 	 6.751704 	 2.853072 
H 	 6.192544 	 6.949170 	 3.795564 
H 	 -0.994123 	 -4.747191 	 4.184087 
H 	 -0.413056 	 -4.807630 	 2.714539 
H 	 -1.610307 	 5.906562 	 3.421434 
H 	 -1.605916 	 5.132092 	 4.819752 
H 	 -0.606362 	 -2.042005 	 -3.058393 
H 	 0.935822 	 -2.141495 	 -2.813602 
H 	 1.147594 	 6.122428 	 -2.249017 
H 	 0.614126 	 4.985748 	 -3.211538 
H 	 -4.090577 	 -2.026327 	 -2.960983 
H 	 -5.297022 	 -1.011916 	 -3.031285 
H 	 -5.281069 	 6.638618 	 3.550067 
H 	 -4.380457 	 5.489124 	 3.199792 
H 	 -0.776181 	 1.347970 	 1.198579 
H 	 -0.289184 	 2.747231 	 1.318329 
H 	 -2.326160 	 6.747634 	 -0.883075 
H 	 -1.687635 	 -6.698887 	 -0.799503 
H 	 7.195460 	 -5.324786 	 7.331049 
H 	 -6.281235 	 -5.654161 	 -7.017088 
H 	 -2.024348 	 -0.263075 	 7.020177 
H 	 -3.428062 	 -0.423098 	 -7.330388 
H 	 3.824377 	 3.080553 	 -5.482616 
H 	 3.514106 	 3.666649 	 -4.091650 
H 	 -1.553036 	 0.756303 	 -4.218603 
H 	 -2.777657 	 0.969752 	 -3.291195 
H 	 -1.430631 	 3.239531 	 -4.401920 
H 	 -2.842290 	 2.960161 	 -5.112680 
H 	 5.039483 	 -1.523679 	 -1.348324 
H 	 3.917214 	 -0.555869 	 -1.934955 
H 	 4.994878 	 0.787884 	 2.514414 
H 	 5.476792 	 1.402272 	 3.828955 
H 	 -5.407517 	 -5.930359 	 -2.348807 
H 	 -5.876702 	 -6.593859 	 -1.152506 
H 	 0.878779 	 2.988642 	 -2.529580 
H 	 0.989414 	 2.305532 	 -3.906605 
H 	 -0.806776 	 -2.906028 	 1.425530 
H 	 0.573875 	 -3.620656 	 1.287928 
H 	 -6.732451 	 -1.698260 	 5.810828 
H 	 7.267024 	 -1.138521 	 6.869024 
H 	 -2.423432 	 -2.672461 	 -4.330094 
H 	 -2.624950 	 -3.453137 	 -2.887148 
H 	 -1.370771 	 4.760447 	 7.467523 
H 	 -1.234379 	 5.192368 	 -5.953115 
H 	 -5.054762 	 0.103245 	 -6.226368 
H 	 -3.688125 	 0.525917 	 -5.476604 
H 	 -7.080716 	 -2.214132 	 -1.359531 
H 	 6.923626 	 -3.423671 	 -1.680225 
H 	 3.146480 	 -7.327674 	 -5.199141 
H 	 2.955404 	 6.075123 	 -5.208757 
H 	 5.905667 	 -3.598571 	 1.761709 
H 	 6.052863 	 -3.291044 	 0.106504 
H 	 6.352572 	 -6.668869 	 0.177453 
H 	 6.597819 	 6.907415 	 0.728464 
H 	 -7.317603 	 -2.886498 	 3.159680 
H 	 6.526571 	 -3.643271 	 4.180197 
H 	 2.205715 	 2.215782 	 -0.409143 
H 	 0.865023 	 1.409636 	 -0.260461 
H 	 4.749145 	 -5.617825 	 -1.174716 
H 	 5.947067 	 -5.645945 	 -2.176533 
H 	 5.287566 	 1.401172 	 -5.662120 
H 	 6.049974 	 1.674318 	 -4.301020 
H 	 -1.445425 	 2.695592 	 6.422420 
H 	 -2.712935 	 3.555607 	 6.512196 
H 	 -5.592056 	 -4.956607 	 1.155666 
H 	 -5.938096 	 -4.486960 	 -0.271592 
H 	 6.151123 	 2.110408 	 -2.015498 
H 	 6.647755 	 3.402820 	 -2.891071 
H 	 3.391181 	 -7.502417 	 -2.443791 
H 	 2.585504 	 -7.020444 	 -1.275514 
H 	 6.372620 	 -6.053132 	 -4.344550 
H 	 5.338950 	 -5.282929 	 -5.173813 
H 	 2.987692 	 -2.496953 	 -1.470987 
H 	 2.480698 	 -3.882358 	 -0.983635 
H 	 -2.055300 	 -3.849390 	 5.806544 
H 	 -1.288265 	 -2.549528 	 5.302914 
H 	 -0.217975 	 -5.452647 	 -6.391991 
H 	 0.299682 	 -5.202838 	 -4.951925 
H 	 -0.745966 	 1.446542 	 -6.280156 
H 	 0.183333 	 1.334493 	 7.277024 
H 	 -1.181387 	 6.345425 	 -3.281060 
H 	 -1.517372 	 6.515223 	 -4.864097 
H 	 0.465248 	 -0.039507 	 -3.964365 
H 	 0.659147 	 0.159319 	 -5.451841 
H 	 -2.258758 	 -4.356322 	 -1.111467 
H 	 -1.046466 	 -4.463115 	 -0.131727 
H 	 3.049612 	 -0.216752 	 0.572347 
H 	 -1.034040 	 -0.923141 	 3.534401 
H 	 -4.164231 	 6.387314 	 -4.653079 
H 	 -4.801042 	 4.961883 	 -4.434489 
H 	 6.731273 	 6.543792 	 -2.833739 
H 	 5.535114 	 6.466510 	 -3.829508 
H 	 4.931538 	 -1.591619 	 -6.741286 
H 	 4.205985 	 -1.487486 	 6.694535 
H 	 0.846327 	 5.121849 	 2.023640 
H 	 0.682443 	 5.212318 	 0.369550 
H 	 -0.136175 	 -0.352932 	 4.665869 
O 	 -5.776642 	 4.906217 	 0.519773 
O 	 6.031136 	 1.202706 	 5.323805 
O 	 -4.052345 	 4.069567 	 7.288944 
O 	 7.137967 	 4.951854 	 -1.429413 
O 	 -4.844682 	 3.178003 	 -4.545907 
O 	 -6.807580 	 2.537694 	 -6.546864 
O 	 -2.463058 	 0.859354 	 -1.069814 
O 	 -4.797982 	 -3.727660 	 -6.607383 
O 	 -2.585950 	 2.222042 	 3.660328 
O 	 -3.548924 	 -6.162167 	 -5.629881 
O 	 4.683898 	 5.672365 	 -0.074303 
O 	 -2.140022 	 -2.950525 	 -5.922921 
O 	 3.485410 	 -5.729884 	 -5.848460 
O 	 -6.731360 	 -3.213832 	 -4.470735 
O 	 1.217188 	 5.112765 	 4.092738 
O 	 -6.836626 	 5.222090 	 -6.381302 
O 	 4.014621 	 2.167381 	 -7.187033 
O 	 -4.271968 	 -0.630548 	 4.443602 
O 	 -1.432071 	 -1.508585 	 1.764260 
O 	 1.889405 	 -2.365435 	 2.991854 
O 	 -0.940777 	 7.040175 	 2.143897 
O 	 3.018179 	 -5.064101 	 3.025245 
O 	 -6.462112 	 1.943774 	 0.184090 
O 	 -4.124031 	 6.089290 	 -1.458199 
O 	 2.985534 	 0.758829 	 -2.991688 
O 	 1.946083 	 5.691887 	 -6.969076 
O 	 -0.764292 	 -6.639842 	 7.277747 
O 	 1.837802 	 -7.609361 	 1.338756 
O 	 -5.781176 	 -6.210961 	 5.029863 
O 	 -6.759570 	 -0.974551 	 2.747764 
O 	 5.118801 	 4.544081 	 6.849633 
O 	 -6.358436 	 -0.501689 	 -5.327907 
O 	 7.176886 	 3.720824 	 2.673795 
O 	 -5.475206 	 -3.275677 	 5.515969 
O 	 -5.314893 	 1.144184 	 -2.429646 
O 	 5.561874 	 1.701655 	 -0.248652 
O 	 -4.334365 	 0.465868 	 1.335044 
O 	 2.245067 	 1.791851 	 3.478889 
O 	 1.963449 	 -1.244484 	 -6.005844 
O 	 5.922849 	 -4.022695 	 6.367420 
O 	 0.939915 	 -6.996631 	 5.082149 
O 	 5.190190 	 -1.816592 	 -4.498101 
O 	 -3.491502 	 -5.437907 	 -2.977253 
O 	 -7.250343 	 4.820242 	 5.578882 
O 	 1.506021 	 -3.458812 	 7.001615 
O 	 3.270628 	 3.155037 	 0.977439 
O 	 -4.025128 	 6.827026 	 5.954515 
O 	 -2.967007 	 -5.352858 	 6.257625 
O 	 -0.141767 	 -0.223986 	 0.039700 
O 	 -3.314247 	 -2.851358 	 -0.143169 
O 	 -2.327492 	 3.645407 	 -1.746174 
O 	 3.724905 	 -6.005895 	 5.725331 
O 	 5.877207 	 -0.741218 	 1.367637 
O 	 3.237625 	 -5.111383 	 0.097105 
O 	 1.780415 	 1.017890 	 6.071677 
O 	 5.638452 	 6.713985 	 -6.417222 
O 	 -5.202370 	 2.535804 	 3.760597 
O 	 4.053641 	 6.644249 	 2.838977 
O 	 3.974934 	 4.276684 	 4.212582 
O 	 2.858239 	 -1.567375 	 5.540603 
O 	 0.525320 	 -6.022981 	 -3.377249 
O 	 3.050415 	 -3.707246 	 -4.253298 
O 	 7.152913 	 7.084566 	 3.774169 
O 	 -0.620193 	 -5.393480 	 3.508737 
O 	 -2.161189 	 5.615067 	 4.207067 
O 	 0.202675 	 -1.529337 	 -2.900498 
O 	 0.312095 	 5.765100 	 -2.633765 
O 	 -5.080747 	 -1.940270 	 -2.829596 
O 	 -4.988881 	 6.143602 	 2.801831 
O 	 -0.547851 	 2.000751 	 1.871879 
O 	 -1.529101 	 7.219596 	 -0.555854 
O 	 -6.994955 	 -6.011400 	 7.394742 
O 	 -2.714504 	 -0.942430 	 7.011299 
O 	 3.792453 	 3.890318 	 -4.969549 
O 	 -2.520335 	 0.874750 	 -4.211630 
O 	 -2.037803 	 3.514041 	 -5.105131 
O 	 4.089281 	 -1.181722 	 -1.221644 
O 	 5.180319 	 1.656841 	 2.933170 
O 	 -6.141709 	 -5.857955 	 -1.679284 
O 	 0.957487 	 3.169842 	 -3.469867 
O 	 -0.378295 	 -3.788599 	 1.216901 
O 	 -7.216131 	 -0.870946 	 6.018105 
O 	 -2.347199 	 -2.608344 	 -3.305992 
O 	 -1.297117 	 5.538167 	 -6.859237 
O 	 -4.201673 	 0.597186 	 -6.355932 
O 	 6.917915 	 -2.471587 	 -1.504011 
O 	 3.501027 	 6.737694 	 -4.717281 
O 	 5.491010 	 -3.483270 	 0.867014 
O 	 6.919334 	 -7.085825 	 0.833488 
O 	 7.021201 	 -3.676756 	 3.297286 
O 	 1.389897 	 2.002303 	 -0.873878 
O 	 5.664819 	 -5.327100 	 -1.294764 
O 	 6.018662 	 1.092686 	 -5.089829 
O 	 -1.800665 	 3.478211 	 5.998103 
O 	 -5.531199 	 -4.187574 	 0.552710 
O 	 6.526284 	 2.426430 	 -2.840905 
O 	 2.909093 	 7.070046 	 -1.659026 
O 	 6.256738 	 -5.188248 	 -4.853895 
O 	 2.326873 	 -3.185627 	 -1.689541 
O 	 -1.163553 	 -3.511737 	 5.647938 
O 	 0.005978 	 -4.703681 	 -5.778442 
O 	 -0.713845 	 1.382499 	 -7.248877 
O 	 -1.890699 	 6.639231 	 -3.951869 
O 	 0.333026 	 0.637387 	 -4.648286 
O 	 -1.555777 	 -4.981587 	 -0.778373 
O 	 2.303143 	 -0.331697 	 1.196356 
O 	 -5.013004 	 5.949431 	 -4.488156 
O 	 6.236437 	 7.084733 	 -3.516302 
O 	 5.115627 	 -1.488122 	 7.187043 
O 	 0.828072 	 4.641793 	 1.120808 
O 	 -0.458133 	 -1.203307 	 4.288008 
K 	 -5.605143 	 1.539658 	 6.035879 
