333
conformation = 71
H 	 -5.898380 	 3.899113 	 0.599372 
H 	 -5.547785 	 5.164617 	 1.419898 
H 	 5.443989 	 1.206464 	 6.323100 
H 	 6.469950 	 0.311554 	 5.446994 
H 	 -4.376083 	 3.968650 	 -7.023937 
H 	 -4.254287 	 5.069857 	 6.827962 
H 	 5.996937 	 4.863242 	 -1.230739 
H 	 -7.438087 	 4.847095 	 -0.803753 
H 	 -5.092397 	 2.524910 	 -3.721971 
H 	 -5.713172 	 3.033721 	 -5.075235 
H 	 -7.540983 	 2.152672 	 -5.951969 
H 	 -7.139200 	 3.505824 	 -6.418012 
H 	 -1.703489 	 0.439690 	 -0.715885 
H 	 -2.630410 	 1.657142 	 -1.005941 
H 	 -5.493513 	 -3.316639 	 -5.988781 
H 	 -3.954680 	 -3.480570 	 -6.489529 
H 	 -2.019781 	 1.927178 	 2.984798 
H 	 -2.186432 	 2.251666 	 4.497616 
H 	 -4.289154 	 -5.424071 	 -6.040281 
H 	 -2.897961 	 -6.152692 	 -6.314903 
H 	 4.208815 	 4.525945 	 0.208304 
H 	 3.900320 	 5.752741 	 -0.619891 
H 	 -1.440126 	 -3.617394 	 -6.103889 
H 	 -2.267995 	 -2.319082 	 -6.762945 
H 	 3.159400 	 -5.707922 	 -6.755963 
H 	 3.084127 	 -5.039549 	 -5.333717 
H 	 -7.153484 	 -3.947452 	 -4.733979 
H 	 -6.336189 	 -2.898902 	 -3.671227 
H 	 1.869486 	 4.941851 	 4.209592 
H 	 0.973963 	 6.153930 	 4.084276 
H 	 7.102586 	 5.662408 	 -6.066201 
H 	 -6.276814 	 5.492217 	 -5.639053 
H 	 4.493376 	 2.795958 	 7.422668 
H 	 3.183159 	 1.849078 	 7.252730 
H 	 -3.407871 	 -0.305609 	 4.793787 
H 	 -4.430672 	 -1.469594 	 4.789879 
H 	 -1.003240 	 -1.087165 	 1.251289 
H 	 -2.371305 	 -1.652875 	 1.538641 
H 	 1.224965 	 -1.981794 	 3.428533 
H 	 2.399440 	 -1.754946 	 2.472979 
H 	 -1.446639 	 6.936966 	 1.374459 
H 	 -1.527182 	 -7.226280 	 2.804590 
H 	 2.687614 	 -4.191084 	 3.349161 
H 	 2.254047 	 -5.516170 	 2.829921 
H 	 -5.971133 	 1.331135 	 0.816623 
H 	 -7.395179 	 1.931976 	 0.351691 
H 	 -4.610860 	 6.487316 	 -1.933267 
H 	 -4.834182 	 5.573793 	 -0.657107 
H 	 2.304571 	 0.189768 	 -3.527465 
H 	 2.678699 	 1.040455 	 -2.409953 
H 	 1.903623 	 4.792367 	 -6.331364 
H 	 0.809182 	 5.729632 	 -6.836714 
H 	 -0.169133 	 -7.037327 	 6.577865 
H 	 -1.004698 	 -7.551038 	 -7.210502 
H 	 2.355469 	 6.730868 	 1.802128 
H 	 0.879322 	 7.148352 	 1.987396 
H 	 -6.706659 	 -6.857405 	 4.589539 
H 	 -6.224331 	 -6.323432 	 5.951397 
H 	 -6.048818 	 -1.020991 	 1.927984 
H 	 -6.487095 	 -0.525087 	 3.347412 
H 	 5.189014 	 5.240474 	 7.352815 
H 	 6.126815 	 4.565757 	 6.401628 
H 	 -6.840729 	 -1.357918 	 -4.988964 
H 	 -7.261318 	 0.151119 	 -5.165193 
H 	 7.015114 	 3.821732 	 3.647974 
H 	 6.192172 	 2.861586 	 2.756753 
H 	 -5.933166 	 -4.165738 	 5.029710 
H 	 -5.291624 	 -3.514771 	 6.394340 
H 	 -4.316761 	 1.002487 	 -1.943498 
H 	 -5.685509 	 1.577683 	 -1.653317 
H 	 5.402026 	 0.761089 	 0.246010 
H 	 4.931839 	 2.270882 	 0.322529 
H 	 -3.834157 	 0.518879 	 2.185851 
H 	 -3.746425 	 0.222869 	 0.626045 
H 	 1.414013 	 2.281042 	 3.105478 
H 	 2.272704 	 1.156742 	 2.672200 
H 	 2.343447 	 -2.048741 	 -5.581714 
H 	 1.509215 	 -1.607333 	 -6.816185 
H 	 5.277456 	 -3.693638 	 6.997439 
H 	 5.157211 	 -5.045349 	 6.289204 
H 	 0.595177 	 -6.676103 	 4.614215 
H 	 1.950416 	 -6.611316 	 5.439394 
H 	 5.321700 	 -1.110711 	 -4.648452 
H 	 6.156720 	 -2.384919 	 -4.524447 
H 	 -3.671140 	 -6.183776 	 -3.839529 
H 	 -2.794765 	 -6.092993 	 -2.499978 
H 	 -6.914759 	 5.036541 	 6.682860 
H 	 -6.976815 	 5.720209 	 5.289089 
H 	 0.880524 	 -3.900266 	 -7.193651 
H 	 0.385104 	 -3.503123 	 6.343034 
H 	 3.372271 	 2.546820 	 1.657923 
H 	 2.480848 	 3.745576 	 1.173927 
H 	 -4.605048 	 7.082062 	 5.401712 
H 	 -3.161966 	 6.450023 	 5.847007 
H 	 -2.493555 	 -6.120085 	 6.607527 
H 	 -3.723968 	 -5.621325 	 5.799674 
H 	 1.382893 	 -0.338279 	 0.671752 
H 	 -0.067919 	 -0.993411 	 -0.501717 
H 	 -4.188578 	 -2.826415 	 0.389761 
H 	 -3.322962 	 -2.263916 	 -0.815551 
H 	 -1.546125 	 4.063491 	 -1.591395 
H 	 -3.033911 	 4.512592 	 -1.617559 
H 	 4.330954 	 -6.826969 	 5.872309 
H 	 3.556809 	 -5.933222 	 4.691345 
H 	 5.503706 	 -1.817128 	 1.245133 
H 	 6.529412 	 -0.652443 	 1.393417 
H 	 3.881198 	 -4.723912 	 0.848328 
H 	 2.997862 	 -6.035580 	 0.587377 
H 	 2.273784 	 0.036006 	 6.163650 
H 	 1.725848 	 1.187976 	 5.295053 
H 	 5.908984 	 -7.424157 	 -6.786188 
H 	 5.057958 	 6.790659 	 -5.670678 
H 	 -5.974799 	 2.854654 	 3.071734 
H 	 -4.488024 	 2.829922 	 3.520341 
H 	 3.871948 	 5.785749 	 3.452837 
H 	 4.348826 	 6.256408 	 2.090633 
H 	 4.420419 	 3.604562 	 3.776481 
H 	 4.312456 	 4.373899 	 5.162796 
H 	 2.869688 	 -1.838608 	 4.659453 
H 	 2.421021 	 -2.287336 	 6.074086 
H 	 0.110015 	 -5.303223 	 -2.537220 
H 	 -0.077849 	 -6.687296 	 -3.404248 
H 	 3.871415 	 -3.322416 	 -4.211857 
H 	 2.678334 	 -3.739166 	 -3.303826 
H 	 7.051649 	 -7.589467 	 2.993863 
H 	 6.003861 	 6.963037 	 4.146374 
H 	 -0.776070 	 -4.587329 	 4.337121 
H 	 -0.539047 	 -4.711977 	 2.803731 
H 	 -1.737557 	 5.954481 	 3.806654 
H 	 -1.682414 	 4.596977 	 4.513660 
H 	 -0.683023 	 -2.071463 	 -2.855190 
H 	 0.756627 	 -2.257617 	 -2.227252 
H 	 0.842212 	 6.120569 	 -1.992394 
H 	 0.783429 	 4.813097 	 -2.928365 
H 	 -4.353158 	 -1.993964 	 -3.108516 
H 	 -5.395321 	 -0.771238 	 -2.927585 
H 	 -5.519676 	 6.536716 	 3.630747 
H 	 -4.099091 	 5.865351 	 3.392012 
H 	 -0.152647 	 1.224387 	 1.203426 
H 	 -0.219265 	 2.856056 	 1.424862 
H 	 -2.395180 	 6.787920 	 -0.833837 
H 	 -1.527664 	 -6.809894 	 -0.485872 
H 	 -7.650275 	 -5.246308 	 7.168384 
H 	 -6.774399 	 -5.774516 	 -6.615176 
H 	 -1.779525 	 -0.387572 	 7.177741 
H 	 -3.230246 	 -0.506518 	 -7.244501 
H 	 3.581583 	 3.280334 	 -5.650021 
H 	 2.909288 	 3.499655 	 -4.262631 
H 	 -1.710162 	 0.738681 	 -4.544286 
H 	 -2.323078 	 0.773812 	 -3.136983 
H 	 -1.752837 	 3.904959 	 -4.288400 
H 	 -3.014722 	 3.322454 	 -4.758316 
H 	 4.957075 	 -1.532799 	 -1.420296 
H 	 3.922407 	 -0.564734 	 -2.028437 
H 	 5.446153 	 0.839509 	 2.640912 
H 	 5.175331 	 1.576198 	 3.896031 
H 	 -5.394493 	 -5.940281 	 -1.870532 
H 	 -6.705360 	 -6.740857 	 -1.182704 
H 	 1.012380 	 2.502161 	 -2.783845 
H 	 0.475304 	 2.623175 	 -4.170973 
H 	 -0.697028 	 -2.977849 	 1.467043 
H 	 0.720511 	 -3.540460 	 1.437853 
H 	 -6.574043 	 -1.901834 	 5.694518 
H 	 6.918933 	 -1.444341 	 6.274826 
H 	 -2.405244 	 -2.573482 	 -4.350192 
H 	 -2.492396 	 -3.662353 	 -3.309873 
H 	 -1.285288 	 5.219919 	 7.097622 
H 	 -1.797727 	 4.635189 	 -6.463354 
H 	 -4.688155 	 -0.018802 	 -5.789492 
H 	 -3.685740 	 1.110247 	 -5.619204 
H 	 -7.100598 	 -2.312950 	 -1.957282 
H 	 6.612867 	 -3.285997 	 -1.746897 
H 	 3.385906 	 -7.172558 	 -5.016955 
H 	 3.140355 	 6.074144 	 -4.876809 
H 	 6.127092 	 -3.702416 	 1.920822 
H 	 6.239220 	 -3.736323 	 0.452435 
H 	 6.440720 	 -6.033087 	 0.513049 
H 	 6.544641 	 -7.554598 	 0.070268 
H 	 7.134080 	 -2.839546 	 3.385873 
H 	 6.497049 	 -3.865397 	 4.242908 
H 	 1.884056 	 2.039049 	 -0.096208 
H 	 0.716511 	 1.126617 	 -0.737689 
H 	 4.637264 	 -5.042925 	 -0.871057 
H 	 5.599004 	 -5.970878 	 -1.708384 
H 	 5.233660 	 1.180778 	 -5.432548 
H 	 6.104713 	 1.677041 	 -4.224169 
H 	 -1.151121 	 2.615713 	 6.485791 
H 	 -2.601788 	 3.336000 	 6.240337 
H 	 -5.901640 	 -4.741341 	 1.475886 
H 	 -5.789255 	 -4.914281 	 -0.010508 
H 	 6.035829 	 1.944015 	 -2.041934 
H 	 6.760173 	 3.207579 	 -2.302556 
H 	 2.651068 	 6.869842 	 -2.740132 
H 	 2.748718 	 -6.870887 	 -1.724367 
H 	 6.415823 	 -6.098321 	 -4.374502 
H 	 5.422145 	 -5.210656 	 -5.199460 
H 	 2.988253 	 -2.726868 	 -1.454219 
H 	 2.279304 	 -4.081215 	 -0.987822 
H 	 -1.969520 	 -4.056982 	 6.160121 
H 	 -1.507727 	 -2.717357 	 5.445598 
H 	 -0.147137 	 -5.592500 	 -6.141300 
H 	 0.377586 	 -4.944093 	 -4.791532 
H 	 -0.774272 	 1.923394 	 -6.358298 
H 	 0.117974 	 1.254294 	 -7.333114 
H 	 -1.109112 	 6.133662 	 -3.241668 
H 	 -1.723799 	 6.541146 	 -4.600401 
H 	 0.228931 	 -0.166357 	 -3.730874 
H 	 0.797089 	 -0.068848 	 -5.140579 
H 	 -2.175714 	 -4.561919 	 -0.660791 
H 	 -0.780039 	 -4.762395 	 -0.288264 
H 	 2.893217 	 -0.814168 	 0.347621 
H 	 -1.093955 	 -1.327370 	 3.605782 
H 	 -4.068470 	 6.270905 	 -4.509859 
H 	 -4.859601 	 4.934673 	 -4.215079 
H 	 6.619376 	 6.093408 	 -2.990705 
H 	 5.221158 	 6.738995 	 -3.501645 
H 	 4.409967 	 -1.226693 	 -6.987569 
H 	 4.489904 	 -1.497998 	 6.401517 
H 	 0.899735 	 4.840668 	 2.046396 
H 	 1.077377 	 5.497620 	 0.795015 
H 	 -0.839481 	 -0.223940 	 4.660954 
O 	 -5.838658 	 4.885825 	 0.503233 
O 	 6.086250 	 1.216851 	 5.547331 
O 	 -4.027153 	 4.097773 	 6.998346 
O 	 6.896883 	 4.858118 	 -1.590734 
O 	 -4.972888 	 3.202165 	 -4.449920 
O 	 -6.874413 	 2.539269 	 -6.512735 
O 	 -2.659686 	 0.670423 	 -0.952395 
O 	 -4.867945 	 -3.872011 	 -6.533113 
O 	 -2.694746 	 2.126269 	 3.670318 
O 	 -3.646817 	 -6.104758 	 -5.710269 
O 	 4.577390 	 5.429576 	 0.010079 
O 	 -2.199066 	 -3.001757 	 -5.994753 
O 	 3.562614 	 -5.718959 	 -5.895629 
O 	 -6.748602 	 -3.038754 	 -4.573196 
O 	 0.999096 	 5.207799 	 3.849077 
O 	 -6.941745 	 5.320599 	 -6.354540 
O 	 4.007700 	 2.025243 	 -7.071167 
O 	 -4.225158 	 -0.611431 	 4.397881 
O 	 -1.541024 	 -1.565220 	 1.967584 
O 	 2.059136 	 -2.395203 	 3.098388 
O 	 -1.127020 	 6.879237 	 2.338401 
O 	 2.953704 	 -5.118303 	 3.308156 
O 	 -6.411884 	 1.934021 	 0.255675 
O 	 -4.135898 	 5.936895 	 -1.291274 
O 	 3.084704 	 0.660302 	 -3.190908 
O 	 1.767031 	 5.567432 	 -6.964943 
O 	 -0.776207 	 -6.670102 	 7.279878 
O 	 1.653622 	 -7.611513 	 1.376257 
O 	 -5.942292 	 -6.383664 	 5.014032 
O 	 -6.797728 	 -0.958953 	 2.539401 
O 	 5.187175 	 4.466397 	 6.798564 
O 	 -6.483004 	 -0.507095 	 -5.256552 
O 	 6.880128 	 3.566391 	 2.709599 
O 	 -5.659215 	 -3.325968 	 5.450773 
O 	 -5.153025 	 1.208612 	 -2.422439 
O 	 5.541501 	 1.682136 	 -0.189998 
O 	 -4.384322 	 0.417852 	 1.349893 
O 	 2.285562 	 1.900277 	 3.293145 
O 	 1.805675 	 -1.255328 	 -5.937453 
O 	 5.763557 	 -4.288827 	 6.371649 
O 	 1.118873 	 -7.144674 	 5.268762 
O 	 5.229946 	 -2.040706 	 -4.453625 
O 	 -3.585501 	 -5.749861 	 -2.919211 
O 	 -7.232395 	 4.919500 	 5.765023 
O 	 1.175093 	 -3.403666 	 6.907400 
O 	 3.220525 	 3.134661 	 0.871799 
O 	 -4.073888 	 6.776281 	 6.181964 
O 	 -2.995333 	 -5.304082 	 6.338306 
O 	 -0.262154 	 -0.249959 	 0.087557 
O 	 -3.275940 	 -2.855937 	 -0.057159 
O 	 -2.432579 	 3.733779 	 -1.832597 
O 	 3.727767 	 -6.063206 	 5.672518 
O 	 5.563107 	 -0.786571 	 1.363507 
O 	 3.262815 	 -5.163836 	 0.165137 
O 	 1.825891 	 0.898626 	 6.245853 
O 	 5.690220 	 6.607351 	 -6.466973 
O 	 -5.407570 	 2.673309 	 3.830679 
O 	 3.892851 	 6.621516 	 2.903550 
O 	 3.857350 	 4.239726 	 4.261552 
O 	 2.929033 	 -1.550003 	 5.619224 
O 	 0.517270 	 -5.946068 	 -3.163097 
O 	 2.962471 	 -3.642716 	 -4.265744 
O 	 6.957249 	 6.943581 	 3.881535 
O 	 -0.678172 	 -5.298508 	 3.596228 
O 	 -2.195353 	 5.433908 	 4.492701 
O 	 0.202530 	 -1.657690 	 -2.798944 
O 	 0.293421 	 5.614187 	 -2.628574 
O 	 -5.191317 	 -1.691984 	 -2.634937 
O 	 -4.951548 	 6.061231 	 2.961337 
O 	 -0.366464 	 1.956831 	 1.827457 
O 	 -1.515627 	 7.093356 	 -0.557075 
O 	 -7.185548 	 -6.059078 	 7.398848 
O 	 -2.541898 	 -1.031984 	 7.102068 
O 	 3.539424 	 3.956958 	 -4.898578 
O 	 -2.593245 	 0.861482 	 -4.089077 
O 	 -2.094016 	 3.416073 	 -5.062396 
O 	 4.049648 	 -1.292352 	 -1.359767 
O 	 5.054689 	 1.660817 	 2.954523 
O 	 -6.350483 	 -5.882121 	 -1.591805 
O 	 0.798021 	 3.185194 	 -3.442772 
O 	 -0.209460 	 -3.814619 	 1.292143 
O 	 -7.190103 	 -1.131157 	 5.785520 
O 	 -2.586109 	 -2.700581 	 -3.352384 
O 	 -1.290739 	 5.425142 	 -6.803351 
O 	 -4.182499 	 0.607386 	 -6.363118 
O 	 6.976492 	 -2.444302 	 -1.401191 
O 	 3.534593 	 6.882366 	 -4.480316 
O 	 5.532172 	 -3.524944 	 1.118721 
O 	 6.704225 	 -6.925838 	 0.808003 
O 	 6.831226 	 -3.788076 	 3.343383 
O 	 1.382737 	 1.844166 	 -0.954355 
O 	 5.561289 	 -5.121987 	 -1.234787 
O 	 6.076293 	 1.055361 	 -4.962693 
O 	 -1.604416 	 3.307504 	 5.963619 
O 	 -5.629153 	 -4.280036 	 0.669564 
O 	 6.360149 	 2.464324 	 -2.817587 
O 	 2.673208 	 7.038693 	 -1.788771 
O 	 6.275652 	 -5.198108 	 -4.701010 
O 	 2.295702 	 -3.391566 	 -1.665714 
O 	 -1.253034 	 -3.594535 	 5.653574 
O 	 0.106746 	 -4.764360 	 -5.738121 
O 	 -0.813627 	 1.366285 	 -7.144328 
O 	 -1.962777 	 6.583847 	 -3.674088 
O 	 0.227896 	 0.434487 	 -4.498157 
O 	 -1.446672 	 -5.135722 	 -0.872569 
O 	 2.358608 	 -0.311918 	 1.007786 
O 	 -4.979336 	 5.898162 	 -4.445591 
O 	 6.179598 	 6.921783 	 -3.291803 
O 	 5.037662 	 -1.521450 	 7.238775 
O 	 0.851603 	 4.564883 	 1.095903 
O 	 -0.666261 	 -1.152641 	 4.488489 
K 	 -5.705225 	 1.455703 	 6.114153 
