333
conformation = 74
H 	 -5.882136 	 3.900212 	 0.639627 
H 	 -5.527758 	 5.142434 	 1.420063 
H 	 5.453109 	 1.243578 	 6.337538 
H 	 6.448744 	 0.334103 	 5.457588 
H 	 -4.392225 	 3.986299 	 -7.040278 
H 	 -4.267105 	 5.069618 	 6.803032 
H 	 5.973010 	 4.856171 	 -1.253108 
H 	 -7.453003 	 4.890732 	 -0.820050 
H 	 -5.078696 	 2.508550 	 -3.743753 
H 	 -5.712013 	 3.043152 	 -5.052701 
H 	 -7.534937 	 2.122137 	 -5.935495 
H 	 -7.136805 	 3.514633 	 -6.442535 
H 	 -1.740621 	 0.436688 	 -0.710085 
H 	 -2.623937 	 1.648346 	 -0.981272 
H 	 -5.499845 	 -3.314736 	 -6.007148 
H 	 -3.979797 	 -3.472829 	 -6.513990 
H 	 -2.034939 	 1.919686 	 2.938948 
H 	 -2.212351 	 2.255146 	 4.477502 
H 	 -4.321239 	 -5.441491 	 -6.020378 
H 	 -2.912096 	 -6.132900 	 -6.358138 
H 	 4.234076 	 4.531243 	 0.223626 
H 	 3.895341 	 5.739528 	 -0.599591 
H 	 -1.450732 	 -3.627689 	 -6.079173 
H 	 -2.258996 	 -2.319510 	 -6.779193 
H 	 3.138395 	 -5.704525 	 -6.759858 
H 	 3.111686 	 -5.034730 	 -5.348456 
H 	 -7.138124 	 -3.923739 	 -4.752328 
H 	 -6.347597 	 -2.923412 	 -3.673315 
H 	 1.831830 	 4.948898 	 4.216316 
H 	 0.977912 	 6.163453 	 4.105693 
H 	 7.104874 	 5.687679 	 -6.106324 
H 	 -6.291041 	 5.494063 	 -5.633770 
H 	 4.452370 	 2.798122 	 7.424355 
H 	 3.232000 	 1.858617 	 7.239523 
H 	 -3.376053 	 -0.320363 	 4.796254 
H 	 -4.423876 	 -1.460629 	 4.829246 
H 	 -1.009461 	 -1.071427 	 1.240457 
H 	 -2.386731 	 -1.686612 	 1.539901 
H 	 1.240474 	 -1.997146 	 3.430090 
H 	 2.396675 	 -1.747673 	 2.468592 
H 	 -1.454318 	 6.935780 	 1.381057 
H 	 -1.511695 	 -7.189500 	 2.759916 
H 	 2.697290 	 -4.172875 	 3.389728 
H 	 2.225180 	 -5.524580 	 2.809266 
H 	 -5.970513 	 1.362564 	 0.837129 
H 	 -7.389155 	 1.912624 	 0.371133 
H 	 -4.595473 	 6.508543 	 -1.938949 
H 	 -4.813709 	 5.565598 	 -0.672950 
H 	 2.306662 	 0.193215 	 -3.497615 
H 	 2.705411 	 1.052736 	 -2.406320 
H 	 1.952103 	 4.827393 	 -6.346340 
H 	 0.813258 	 5.726660 	 -6.797248 
H 	 -0.171816 	 -7.045669 	 6.557291 
H 	 -1.015015 	 -7.564024 	 -7.184834 
H 	 2.375817 	 6.744291 	 1.794476 
H 	 0.865328 	 7.187641 	 1.976442 
H 	 -6.700412 	 -6.876680 	 4.617916 
H 	 -6.209352 	 -6.327468 	 5.929504 
H 	 -6.051622 	 -0.984953 	 1.924523 
H 	 -6.455656 	 -0.536065 	 3.350133 
H 	 5.209295 	 5.242948 	 7.345822 
H 	 6.122977 	 4.583067 	 6.393348 
H 	 -6.862469 	 -1.366462 	 -5.005946 
H 	 -7.282153 	 0.145509 	 -5.186613 
H 	 7.014212 	 3.870906 	 3.624422 
H 	 6.195088 	 2.849447 	 2.754783 
H 	 -5.907454 	 -4.165344 	 5.026244 
H 	 -5.298892 	 -3.490387 	 6.359528 
H 	 -4.330018 	 1.018209 	 -1.950915 
H 	 -5.701988 	 1.564345 	 -1.632233 
H 	 5.365317 	 0.792866 	 0.184106 
H 	 4.966267 	 2.259741 	 0.310604 
H 	 -3.859893 	 0.573472 	 2.205870 
H 	 -3.730364 	 0.212017 	 0.623621 
H 	 1.410187 	 2.288447 	 3.071986 
H 	 2.251857 	 1.169051 	 2.653784 
H 	 2.298257 	 -2.043565 	 -5.585923 
H 	 1.476933 	 -1.640252 	 -6.819736 
H 	 5.283145 	 -3.670960 	 6.977746 
H 	 5.133470 	 -5.058401 	 6.259787 
H 	 0.589590 	 -6.666116 	 4.640455 
H 	 1.945114 	 -6.609454 	 5.411046 
H 	 5.327370 	 -1.113470 	 -4.644064 
H 	 6.123073 	 -2.361113 	 -4.548163 
H 	 -3.630429 	 -6.176688 	 -3.830418 
H 	 -2.768484 	 -6.095316 	 -2.550597 
H 	 -6.919014 	 5.036497 	 6.703227 
H 	 -6.979427 	 5.716734 	 5.273244 
H 	 0.874755 	 -3.903622 	 -7.170681 
H 	 0.369861 	 -3.485722 	 6.362128 
H 	 3.375401 	 2.580547 	 1.629502 
H 	 2.483697 	 3.770008 	 1.115879 
H 	 -4.601524 	 7.087634 	 5.425520 
H 	 -3.167635 	 6.451719 	 5.822547 
H 	 -2.502401 	 -6.136543 	 6.584888 
H 	 -3.730958 	 -5.655681 	 5.783977 
H 	 1.395198 	 -0.321471 	 0.679020 
H 	 -0.059216 	 -1.013947 	 -0.468721 
H 	 -4.184844 	 -2.851482 	 0.387478 
H 	 -3.322051 	 -2.283034 	 -0.828057 
H 	 -1.542870 	 4.044958 	 -1.567581 
H 	 -3.020215 	 4.519595 	 -1.586576 
H 	 4.312059 	 -6.881237 	 5.869763 
H 	 3.519551 	 -5.923124 	 4.707883 
H 	 5.510503 	 -1.767868 	 1.246737 
H 	 6.550963 	 -0.665112 	 1.354987 
H 	 3.866420 	 -4.708427 	 0.869969 
H 	 2.983516 	 -6.059803 	 0.577693 
H 	 2.251397 	 -0.002420 	 6.181060 
H 	 1.714363 	 1.200588 	 5.265833 
H 	 5.956994 	 -7.428011 	 -6.778440 
H 	 5.067927 	 6.807385 	 -5.664335 
H 	 -5.980642 	 2.820290 	 3.095834 
H 	 -4.496429 	 2.853054 	 3.544751 
H 	 3.830626 	 5.776392 	 3.461770 
H 	 4.353806 	 6.249522 	 2.102198 
H 	 4.436591 	 3.673642 	 3.748830 
H 	 4.317332 	 4.377690 	 5.173278 
H 	 2.890657 	 -1.806447 	 4.683107 
H 	 2.411034 	 -2.314089 	 6.059751 
H 	 0.102669 	 -5.308521 	 -2.551693 
H 	 -0.073883 	 -6.673811 	 -3.385392 
H 	 3.866549 	 -3.328217 	 -4.183024 
H 	 2.681095 	 -3.708315 	 -3.295766 
H 	 7.042203 	 -7.609253 	 2.977532 
H 	 6.008178 	 6.933785 	 4.135657 
H 	 -0.753913 	 -4.596994 	 4.321678 
H 	 -0.498462 	 -4.736078 	 2.813338 
H 	 -1.740751 	 5.956724 	 3.825460 
H 	 -1.671791 	 4.562931 	 4.459385 
H 	 -0.687475 	 -2.116487 	 -2.858577 
H 	 0.752878 	 -2.243467 	 -2.210862 
H 	 0.814223 	 6.129256 	 -1.979168 
H 	 0.767539 	 4.822691 	 -2.939739 
H 	 -4.370789 	 -2.008209 	 -3.082041 
H 	 -5.423596 	 -0.751759 	 -2.918632 
H 	 -5.520419 	 6.511549 	 3.624448 
H 	 -4.092003 	 5.875458 	 3.430531 
H 	 -0.162916 	 1.227779 	 1.170231 
H 	 -0.206194 	 2.847038 	 1.420402 
H 	 -2.405413 	 6.757006 	 -0.830902 
H 	 -1.505658 	 -6.841885 	 -0.505678 
H 	 -7.651470 	 -5.224104 	 7.186104 
H 	 -6.833831 	 -5.780541 	 -6.614600 
H 	 -1.798753 	 -0.373859 	 7.184468 
H 	 -3.221729 	 -0.489048 	 -7.261189 
H 	 3.601727 	 3.303505 	 -5.675986 
H 	 2.902995 	 3.504864 	 -4.287528 
H 	 -1.735966 	 0.737097 	 -4.562782 
H 	 -2.317746 	 0.758830 	 -3.122190 
H 	 -1.766182 	 3.948079 	 -4.311210 
H 	 -3.023839 	 3.265073 	 -4.773182 
H 	 4.967322 	 -1.543489 	 -1.406118 
H 	 3.933327 	 -0.555262 	 -2.038200 
H 	 5.470058 	 0.819686 	 2.640611 
H 	 5.178602 	 1.609767 	 3.907132 
H 	 -5.408609 	 -5.988346 	 -1.861731 
H 	 -6.690398 	 -6.749837 	 -1.216634 
H 	 1.026349 	 2.484250 	 -2.755935 
H 	 0.458173 	 2.593937 	 -4.173907 
H 	 -0.694078 	 -2.973979 	 1.464092 
H 	 0.734381 	 -3.535837 	 1.429888 
H 	 -6.574637 	 -1.928529 	 5.660463 
H 	 6.947016 	 -1.454598 	 6.262901 
H 	 -2.429652 	 -2.582676 	 -4.323037 
H 	 -2.520089 	 -3.679880 	 -3.291744 
H 	 -1.302151 	 5.233948 	 7.107651 
H 	 -1.759243 	 4.628279 	 -6.435795 
H 	 -4.701460 	 -0.042516 	 -5.824991 
H 	 -3.723802 	 1.106619 	 -5.644968 
H 	 -7.068446 	 -2.315463 	 -1.957343 
H 	 6.603045 	 -3.274974 	 -1.765707 
H 	 3.391546 	 -7.204156 	 -5.013252 
H 	 3.185675 	 6.088431 	 -4.877926 
H 	 6.128372 	 -3.668695 	 1.922802 
H 	 6.208926 	 -3.771770 	 0.453107 
H 	 6.422345 	 -6.006447 	 0.516726 
H 	 6.511909 	 -7.532120 	 0.055709 
H 	 7.136273 	 -2.855355 	 3.379444 
H 	 6.529229 	 -3.877275 	 4.251329 
H 	 1.870781 	 2.008413 	 -0.119526 
H 	 0.694992 	 1.153182 	 -0.749357 
H 	 4.660728 	 -5.031530 	 -0.852196 
H 	 5.622982 	 -5.966314 	 -1.740793 
H 	 5.225635 	 1.174180 	 -5.412735 
H 	 6.088493 	 1.674765 	 -4.195012 
H 	 -1.117646 	 2.592322 	 6.481500 
H 	 -2.607749 	 3.313208 	 6.267371 
H 	 -5.905102 	 -4.714531 	 1.522471 
H 	 -5.809654 	 -4.948814 	 -0.027784 
H 	 6.012292 	 1.939197 	 -2.021799 
H 	 6.770532 	 3.208474 	 -2.346774 
H 	 2.670277 	 6.881533 	 -2.777827 
H 	 2.738112 	 -6.865845 	 -1.756347 
H 	 6.425330 	 -6.100785 	 -4.381842 
H 	 5.441649 	 -5.228856 	 -5.190748 
H 	 3.004898 	 -2.726094 	 -1.466481 
H 	 2.257430 	 -4.080314 	 -0.981952 
H 	 -1.966437 	 -4.103152 	 6.154180 
H 	 -1.495150 	 -2.696693 	 5.473809 
H 	 -0.127961 	 -5.616542 	 -6.129975 
H 	 0.404946 	 -4.940632 	 -4.825042 
H 	 -0.780852 	 1.926970 	 -6.357801 
H 	 0.161051 	 1.261311 	 -7.300741 
H 	 -1.131585 	 6.146259 	 -3.224567 
H 	 -1.740628 	 6.519547 	 -4.604603 
H 	 0.236568 	 -0.170027 	 -3.690584 
H 	 0.801979 	 -0.067296 	 -5.131024 
H 	 -2.184886 	 -4.542659 	 -0.667797 
H 	 -0.736928 	 -4.739433 	 -0.311680 
H 	 2.897732 	 -0.848037 	 0.389280 
H 	 -1.108759 	 -1.348533 	 3.628075 
H 	 -4.069961 	 6.244977 	 -4.516666 
H 	 -4.892859 	 4.956306 	 -4.169910 
H 	 6.650525 	 6.127427 	 -2.987573 
H 	 5.248468 	 6.741834 	 -3.457188 
H 	 4.425367 	 -1.191717 	 -6.951723 
H 	 4.511179 	 -1.522698 	 6.441755 
H 	 0.893445 	 4.811552 	 2.024790 
H 	 1.089394 	 5.473916 	 0.813099 
H 	 -0.857722 	 -0.233230 	 4.659262 
O 	 -5.840688 	 4.883583 	 0.497542 
O 	 6.090652 	 1.216047 	 5.558385 
O 	 -4.026797 	 4.100487 	 6.983474 
O 	 6.886187 	 4.854103 	 -1.595266 
O 	 -4.973945 	 3.202334 	 -4.448008 
O 	 -6.875707 	 2.545809 	 -6.509912 
O 	 -2.664105 	 0.669511 	 -0.949472 
O 	 -4.868689 	 -3.872432 	 -6.533333 
O 	 -2.690636 	 2.118327 	 3.669699 
O 	 -3.647284 	 -6.106664 	 -5.710799 
O 	 4.575214 	 5.421584 	 0.009902 
O 	 -2.199786 	 -2.999917 	 -6.003548 
O 	 3.568203 	 -5.712949 	 -5.898824 
O 	 -6.746754 	 -3.033566 	 -4.578894 
O 	 0.992134 	 5.210454 	 3.832595 
O 	 -6.938366 	 5.324631 	 -6.353082 
O 	 4.013368 	 2.020328 	 -7.067113 
O 	 -4.221972 	 -0.608527 	 4.391811 
O 	 -1.542838 	 -1.559073 	 1.972948 
O 	 2.068619 	 -2.389876 	 3.101038 
O 	 -1.132381 	 6.874023 	 2.345993 
O 	 2.956088 	 -5.118395 	 3.319200 
O 	 -6.404512 	 1.941280 	 0.251028 
O 	 -4.135429 	 5.933301 	 -1.284962 
O 	 3.091624 	 0.655722 	 -3.200775 
O 	 1.760018 	 5.561758 	 -6.962996 
O 	 -0.773252 	 -6.675027 	 7.281376 
O 	 1.647130 	 -7.602430 	 1.378528 
O 	 -5.947929 	 -6.387258 	 5.010229 
O 	 -6.793698 	 -0.959419 	 2.529738 
O 	 5.189591 	 4.458856 	 6.788210 
O 	 -6.484747 	 -0.497686 	 -5.255414 
O 	 6.873164 	 3.565422 	 2.713421 
O 	 -5.662993 	 -3.324996 	 5.449890 
O 	 -5.141295 	 1.216380 	 -2.421541 
O 	 5.545314 	 1.678538 	 -0.183406 
O 	 -4.382738 	 0.411715 	 1.348685 
O 	 2.284128 	 1.905199 	 3.285188 
O 	 1.808526 	 -1.255328 	 -5.937594 
O 	 5.760647 	 -4.299043 	 6.372466 
O 	 1.127016 	 -7.146313 	 5.276179 
O 	 5.237847 	 -2.047955 	 -4.455158 
O 	 -3.591811 	 -5.761002 	 -2.913088 
O 	 -7.225921 	 4.924225 	 5.776451 
O 	 1.161316 	 -3.397889 	 6.899566 
O 	 3.217829 	 3.135725 	 0.870737 
O 	 -4.067763 	 6.772188 	 6.195492 
O 	 -3.000080 	 -5.295152 	 6.342852 
O 	 -0.263844 	 -0.248722 	 0.087474 
O 	 -3.269374 	 -2.848379 	 -0.053328 
O 	 -2.433205 	 3.739979 	 -1.840218 
O 	 3.735053 	 -6.065033 	 5.670201 
O 	 5.547099 	 -0.778957 	 1.362394 
O 	 3.264746 	 -5.165755 	 0.172203 
O 	 1.830603 	 0.899451 	 6.255159 
O 	 5.687502 	 6.609161 	 -6.471127 
O 	 -5.417406 	 2.684729 	 3.824481 
O 	 3.895420 	 6.622620 	 2.904685 
O 	 3.855277 	 4.238711 	 4.267789 
O 	 2.935435 	 -1.549774 	 5.620188 
O 	 0.515883 	 -5.937424 	 -3.152538 
O 	 2.961889 	 -3.636047 	 -4.275014 
O 	 6.945398 	 6.946833 	 3.879908 
O 	 -0.678054 	 -5.293337 	 3.600887 
O 	 -2.196085 	 5.432273 	 4.504523 
O 	 0.202018 	 -1.661304 	 -2.789750 
O 	 0.297678 	 5.609331 	 -2.627530 
O 	 -5.191307 	 -1.679139 	 -2.627680 
O 	 -4.945593 	 6.060834 	 2.965890 
O 	 -0.352243 	 1.960896 	 1.827206 
O 	 -1.513569 	 7.089490 	 -0.552174 
O 	 -7.191618 	 -6.059711 	 7.399564 
O 	 -2.527747 	 -1.033370 	 7.105046 
O 	 3.523814 	 3.961382 	 -4.894913 
O 	 -2.590381 	 0.858262 	 -4.082277 
O 	 -2.093851 	 3.419243 	 -5.060612 
O 	 4.048922 	 -1.293455 	 -1.369101 
O 	 5.047573 	 1.657134 	 2.951478 
O 	 -6.355650 	 -5.876387 	 -1.589310 
O 	 0.795246 	 3.187558 	 -3.444026 
O 	 -0.194619 	 -3.816491 	 1.295650 
O 	 -7.189608 	 -1.140313 	 5.773755 
O 	 -2.592534 	 -2.701310 	 -3.355538 
O 	 -1.285569 	 5.425463 	 -6.808195 
O 	 -4.176582 	 0.613608 	 -6.362657 
O 	 6.977992 	 -2.442179 	 -1.397424 
O 	 3.536615 	 6.892396 	 -4.469459 
O 	 5.535924 	 -3.526839 	 1.129217 
O 	 6.700201 	 -6.916441 	 0.807166 
O 	 6.825529 	 -3.788862 	 3.351075 
O 	 1.384962 	 1.836971 	 -0.965623 
O 	 5.563157 	 -5.114101 	 -1.238895 
O 	 6.080127 	 1.053822 	 -4.963346 
O 	 -1.591829 	 3.301184 	 5.964272 
O 	 -5.633767 	 -4.280446 	 0.675552 
O 	 6.356423 	 2.469142 	 -2.812578 
O 	 2.665227 	 7.036302 	 -1.794383 
O 	 6.281216 	 -5.196796 	 -4.693844 
O 	 2.293709 	 -3.398172 	 -1.666044 
O 	 -1.249145 	 -3.591118 	 5.651153 
O 	 0.113000 	 -4.761565 	 -5.739573 
O 	 -0.814703 	 1.369594 	 -7.145719 
O 	 -1.962611 	 6.587844 	 -3.665494 
O 	 0.225883 	 0.428091 	 -4.492180 
O 	 -1.437492 	 -5.137114 	 -0.877412 
O 	 2.363729 	 -0.312024 	 0.999386 
O 	 -4.972684 	 5.901208 	 -4.443731 
O 	 6.174035 	 6.919194 	 -3.282718 
O 	 5.036505 	 -1.520848 	 7.236524 
O 	 0.856077 	 4.560711 	 1.098473 
O 	 -0.671735 	 -1.144342 	 4.491851 
K 	 -5.707146 	 1.454531 	 6.119156 
