333
conformation = 52
H 	 -5.887177 	 3.875474 	 0.505315 
H 	 -5.731762 	 5.162791 	 1.423515 
H 	 5.511351 	 0.916213 	 6.170349 
H 	 6.658328 	 0.321155 	 5.331394 
H 	 -4.179570 	 3.805809 	 -6.886785 
H 	 -4.153367 	 4.997196 	 6.902114 
H 	 6.213638 	 5.005366 	 -1.058529 
H 	 -7.197192 	 4.663345 	 -0.861641 
H 	 -5.030118 	 2.573500 	 -3.702371 
H 	 -5.519313 	 2.746418 	 -5.195909 
H 	 -7.551878 	 1.984459 	 -6.162518 
H 	 -6.945059 	 3.463893 	 -6.522825 
H 	 -1.655519 	 0.364187 	 -0.649052 
H 	 -2.519588 	 1.635246 	 -1.119738 
H 	 -5.333322 	 -3.483821 	 -5.837225 
H 	 -3.871873 	 -3.659610 	 -6.293357 
H 	 -1.928319 	 2.030055 	 3.007597 
H 	 -2.225086 	 2.463228 	 4.512507 
H 	 -3.919338 	 -5.379165 	 -6.220682 
H 	 -2.737674 	 -6.269018 	 -6.129910 
H 	 4.174865 	 4.584424 	 0.215756 
H 	 4.085595 	 5.959377 	 -0.686555 
H 	 -1.326687 	 -3.565531 	 -6.174414 
H 	 -2.127313 	 -2.300991 	 -6.663573 
H 	 3.236912 	 -5.724475 	 -6.813141 
H 	 3.122127 	 -5.065682 	 -5.380279 
H 	 -7.232280 	 -3.971084 	 -4.302941 
H 	 -6.123639 	 -2.943282 	 -3.795791 
H 	 2.062755 	 4.864371 	 4.082277 
H 	 1.079790 	 6.062530 	 4.133639 
H 	 7.201152 	 5.647504 	 -5.981461 
H 	 -6.144476 	 5.605943 	 -5.853253 
H 	 4.481571 	 2.785785 	 7.294343 
H 	 3.154661 	 1.882362 	 7.239447 
H 	 -3.429761 	 -0.448123 	 4.888733 
H 	 -4.247623 	 -1.619319 	 4.587283 
H 	 -0.943954 	 -1.031210 	 1.203253 
H 	 -2.355724 	 -1.677983 	 1.491930 
H 	 1.199150 	 -2.035236 	 3.375384 
H 	 2.355945 	 -1.849194 	 2.346515 
H 	 -1.377849 	 6.930985 	 1.313535 
H 	 -1.452077 	 -7.282102 	 2.738867 
H 	 2.657614 	 -4.264235 	 3.104079 
H 	 2.354914 	 -5.752093 	 2.828260 
H 	 -6.062806 	 1.102200 	 0.761852 
H 	 -7.369091 	 1.788141 	 0.303693 
H 	 -4.627630 	 6.206221 	 -2.118321 
H 	 -4.724181 	 5.593607 	 -0.625188 
H 	 2.462395 	 0.247449 	 -3.815165 
H 	 2.534389 	 1.034389 	 -2.440489 
H 	 1.825128 	 4.699792 	 -6.451555 
H 	 0.924849 	 5.737038 	 -7.239570 
H 	 -0.012080 	 -6.755439 	 6.589245 
H 	 -0.996906 	 -7.561764 	 -7.295920 
H 	 2.448854 	 6.812506 	 1.911405 
H 	 0.865638 	 7.103174 	 1.793448 
H 	 -6.668054 	 -6.622975 	 4.471640 
H 	 -6.233180 	 -6.407590 	 5.933231 
H 	 -5.903252 	 -1.146339 	 2.112752 
H 	 -6.460433 	 -0.461533 	 3.284390 
H 	 5.148736 	 5.233785 	 7.404353 
H 	 6.134718 	 4.496119 	 6.422065 
H 	 -6.717132 	 -1.444901 	 -4.974733 
H 	 -7.098103 	 0.047231 	 -5.069429 
H 	 7.166858 	 3.572866 	 3.629486 
H 	 6.323208 	 2.828916 	 2.560016 
H 	 -6.006944 	 -4.166106 	 5.038838 
H 	 -5.297099 	 -3.754856 	 6.363900 
H 	 -4.291273 	 0.830078 	 -2.101296 
H 	 -5.668311 	 1.520681 	 -1.736646 
H 	 5.662002 	 0.769126 	 0.323682 
H 	 4.830870 	 2.211218 	 0.137681 
H 	 -3.788414 	 0.150083 	 2.066326 
H 	 -3.797041 	 0.453605 	 0.514057 
H 	 1.409042 	 2.081843 	 3.162930 
H 	 2.418991 	 0.996883 	 2.779025 
H 	 2.388303 	 -2.023367 	 -5.487877 
H 	 1.675706 	 -1.626703 	 -6.850871 
H 	 5.483147 	 -3.625035 	 6.990967 
H 	 5.176802 	 -4.943520 	 6.220754 
H 	 0.799130 	 -6.505064 	 4.501462 
H 	 1.929158 	 -6.745083 	 5.504017 
H 	 5.412821 	 -1.081886 	 -4.623564 
H 	 6.175688 	 -2.442018 	 -4.350414 
H 	 -3.570367 	 -6.202055 	 -3.853452 
H 	 -2.954357 	 -6.337428 	 -2.466420 
H 	 -6.810556 	 4.960553 	 6.540139 
H 	 -7.079842 	 5.674839 	 5.188331 
H 	 1.066895 	 -3.909749 	 -7.164307 
H 	 0.539699 	 -3.547553 	 6.304937 
H 	 3.520480 	 2.461135 	 1.658783 
H 	 2.467933 	 3.600348 	 1.153788 
H 	 -4.499085 	 7.092286 	 5.261261 
H 	 -3.203132 	 6.419182 	 5.654063 
H 	 -2.381996 	 -6.170574 	 6.496481 
H 	 -3.703413 	 -5.704259 	 5.831137 
H 	 1.403495 	 -0.460487 	 0.671322 
H 	 -0.110001 	 -0.789986 	 -0.805860 
H 	 -4.184738 	 -3.026589 	 0.219451 
H 	 -3.322662 	 -2.242414 	 -0.820318 
H 	 -1.551650 	 4.162275 	 -1.808905 
H 	 -3.048988 	 4.360431 	 -1.904931 
H 	 4.370761 	 -6.786642 	 5.766314 
H 	 3.840255 	 -5.871032 	 4.683365 
H 	 5.548032 	 -1.891075 	 1.179284 
H 	 6.588844 	 -0.881639 	 1.740615 
H 	 4.016548 	 -4.755667 	 0.622097 
H 	 2.969681 	 -5.967946 	 0.589096 
H 	 2.374260 	 0.066260 	 6.000790 
H 	 1.896159 	 1.269137 	 5.299270 
H 	 5.877483 	 -7.419806 	 -6.805890 
H 	 5.000400 	 6.587647 	 -5.798263 
H 	 -5.907322 	 3.021547 	 3.137932 
H 	 -4.369459 	 2.479371 	 3.447037 
H 	 4.124839 	 5.728939 	 3.349255 
H 	 4.427383 	 6.438611 	 1.998682 
H 	 4.089290 	 3.249662 	 3.930919 
H 	 4.282283 	 4.294360 	 5.122417 
H 	 2.740407 	 -1.988402 	 4.634370 
H 	 2.475578 	 -2.214892 	 6.161176 
H 	 0.076089 	 -5.597999 	 -2.521590 
H 	 -0.114052 	 -6.752510 	 -3.337752 
H 	 3.848287 	 -3.200881 	 -4.255700 
H 	 2.794763 	 -3.822692 	 -3.305382 
H 	 7.063059 	 -7.659962 	 2.923865 
H 	 6.117903 	 7.036107 	 4.027943 
H 	 -1.038176 	 -4.838022 	 4.312270 
H 	 -0.729742 	 -4.849160 	 2.689919 
H 	 -1.609017 	 5.654290 	 3.556844 
H 	 -1.653338 	 4.769758 	 4.831958 
H 	 -0.659910 	 -1.969328 	 -2.865819 
H 	 0.806143 	 -2.421778 	 -2.542131 
H 	 0.952721 	 6.105451 	 -2.101841 
H 	 0.686456 	 4.696024 	 -2.917742 
H 	 -4.211891 	 -2.073757 	 -3.091313 
H 	 -5.272909 	 -0.899489 	 -2.948558 
H 	 -5.330864 	 6.573088 	 3.585939 
H 	 -4.112096 	 5.693281 	 3.245927 
H 	 -0.139925 	 1.218522 	 1.184550 
H 	 -0.239526 	 2.691835 	 1.251269 
H 	 -2.360368 	 6.799699 	 -0.878688 
H 	 -1.583453 	 -6.795854 	 -0.578034 
H 	 -7.634853 	 -5.329777 	 7.132845 
H 	 -6.405358 	 -5.828501 	 -6.879328 
H 	 -1.718645 	 -0.599851 	 7.138848 
H 	 -3.189252 	 -0.529210 	 -7.210106 
H 	 3.661759 	 3.108918 	 -5.570637 
H 	 3.152832 	 3.596760 	 -4.148411 
H 	 -1.593494 	 0.717064 	 -4.452298 
H 	 -2.543012 	 0.861157 	 -3.211484 
H 	 -1.518926 	 3.459689 	 -4.284096 
H 	 -2.984529 	 3.341890 	 -4.857930 
H 	 5.042267 	 -1.524751 	 -1.483202 
H 	 3.825495 	 -0.747703 	 -2.075714 
H 	 5.200695 	 0.821430 	 2.418255 
H 	 5.276279 	 1.317905 	 3.852462 
H 	 -5.326418 	 -6.068153 	 -1.992447 
H 	 -6.332805 	 -6.746187 	 -1.093358 
H 	 0.985578 	 2.552200 	 -2.737669 
H 	 0.614116 	 2.601670 	 -4.227643 
H 	 -0.804070 	 -3.063120 	 1.463578 
H 	 0.669191 	 -3.637631 	 1.439930 
H 	 -6.617309 	 -1.913158 	 5.770310 
H 	 7.003977 	 -1.430243 	 6.442188 
H 	 -2.261665 	 -2.568455 	 -4.380238 
H 	 -2.508297 	 -3.692560 	 -3.275914 
H 	 -1.121445 	 5.050267 	 7.140068 
H 	 -1.886746 	 4.754283 	 -6.378486 
H 	 -4.901318 	 0.173055 	 -5.814097 
H 	 -3.429169 	 0.946899 	 -5.791651 
H 	 -7.109331 	 -2.287303 	 -1.911944 
H 	 6.793850 	 -3.439536 	 -1.684809 
H 	 3.273189 	 -7.293161 	 -5.099809 
H 	 2.960798 	 6.111250 	 -5.055643 
H 	 5.851597 	 -3.896913 	 1.890569 
H 	 6.285012 	 -3.420877 	 0.340118 
H 	 6.506890 	 -6.298639 	 0.245288 
H 	 6.682673 	 7.129774 	 0.171009 
H 	 -7.619741 	 -2.882305 	 3.247016 
H 	 6.301781 	 -3.927342 	 4.039585 
H 	 2.041542 	 2.188095 	 -0.216369 
H 	 1.015870 	 0.993015 	 -0.571044 
H 	 4.624170 	 -5.192625 	 -1.041417 
H 	 5.694164 	 -6.046355 	 -1.749546 
H 	 5.359063 	 1.310866 	 -5.584125 
H 	 6.126703 	 1.658634 	 -4.294702 
H 	 -1.404799 	 2.682560 	 6.625311 
H 	 -2.554260 	 3.575120 	 6.272933 
H 	 -5.817384 	 -4.924286 	 1.275300 
H 	 -5.720466 	 -4.735716 	 -0.223308 
H 	 6.086467 	 1.792390 	 -2.225985 
H 	 6.703012 	 3.278126 	 -2.468677 
H 	 2.816261 	 6.975095 	 -2.727315 
H 	 2.769274 	 -6.954202 	 -1.618503 
H 	 6.327293 	 -6.121362 	 -4.338105 
H 	 5.408712 	 -5.262045 	 -5.234529 
H 	 2.985015 	 -2.669884 	 -1.495986 
H 	 2.564572 	 -4.071483 	 -1.022776 
H 	 -2.030275 	 -4.040773 	 5.984629 
H 	 -1.404973 	 -2.753283 	 5.256798 
H 	 -0.193360 	 -5.583709 	 -6.273270 
H 	 0.193979 	 -5.157674 	 -4.812552 
H 	 -0.722567 	 1.766826 	 -6.327506 
H 	 0.099635 	 1.145269 	 7.348575 
H 	 -1.084297 	 6.089965 	 -3.281328 
H 	 -1.641445 	 6.624897 	 -4.716444 
H 	 0.181565 	 -0.246312 	 -3.924527 
H 	 0.703411 	 -0.114248 	 -5.297057 
H 	 -2.255380 	 -4.633515 	 -0.734964 
H 	 -0.937674 	 -4.914761 	 -0.095620 
H 	 2.971230 	 -0.373066 	 0.236397 
H 	 -0.970261 	 -1.225942 	 3.493137 
H 	 -4.158313 	 6.398854 	 -4.524805 
H 	 -4.674753 	 4.876794 	 -4.489476 
H 	 6.497605 	 6.032085 	 -2.984407 
H 	 5.329705 	 6.720929 	 -3.803699 
H 	 4.454689 	 -1.469832 	 -7.008741 
H 	 4.514549 	 -1.490165 	 6.339311 
H 	 0.793161 	 4.819530 	 2.040990 
H 	 0.883660 	 5.343752 	 0.455723 
H 	 -0.560069 	 -0.286215 	 4.681899 
O 	 -5.779313 	 4.853087 	 0.491673 
O 	 6.094709 	 1.166971 	 5.431061 
O 	 -3.991583 	 4.027957 	 7.073090 
O 	 7.026368 	 4.828904 	 -1.572161 
O 	 -4.916650 	 3.153881 	 -4.503620 
O 	 -6.829649 	 2.473876 	 -6.551624 
O 	 -2.557652 	 0.649529 	 -1.020600 
O 	 -4.814037 	 -3.890525 	 -6.584796 
O 	 -2.642391 	 2.116275 	 3.644701 
O 	 -3.599419 	 -6.158977 	 -5.723638 
O 	 4.629351 	 5.435534 	 -0.043438 
O 	 -2.149387 	 -3.056666 	 -5.983951 
O 	 3.567144 	 -5.800246 	 -5.901249 
O 	 -6.722336 	 -3.141987 	 -4.579102 
O 	 1.107706 	 5.122557 	 3.921580 
O 	 -6.897325 	 5.224771 	 -6.388407 
O 	 4.025740 	 2.010402 	 -7.135271 
O 	 -4.223667 	 -0.669103 	 4.389576 
O 	 -1.463878 	 -1.641431 	 1.883545 
O 	 2.035750 	 -2.460223 	 3.040445 
O 	 -1.034306 	 6.871304 	 2.255694 
O 	 2.998170 	 -5.158356 	 3.185237 
O 	 -6.405680 	 1.865975 	 0.225490 
O 	 -4.098729 	 5.922309 	 -1.366032 
O 	 3.077732 	 0.641192 	 -3.148327 
O 	 1.855037 	 5.547696 	 -6.994278 
O 	 -0.747759 	 -6.705224 	 7.239509 
O 	 1.746571 	 -7.722964 	 1.333396 
O 	 -5.853644 	 -6.399641 	 5.002702 
O 	 -6.785145 	 -1.015450 	 2.564419 
O 	 5.208887 	 4.455790 	 6.816949 
O 	 -6.404806 	 -0.595159 	 -5.310275 
O 	 6.989234 	 3.541293 	 2.663463 
O 	 -5.564741 	 -3.380417 	 5.443519 
O 	 -5.183003 	 1.117300 	 -2.460192 
O 	 5.562591 	 1.640755 	 -0.245332 
O 	 -4.336667 	 0.396990 	 1.323386 
O 	 2.335584 	 1.810974 	 3.324281 
O 	 1.867253 	 -1.302181 	 -5.980586 
O 	 5.842366 	 -4.257397 	 6.339636 
O 	 1.090601 	 -7.177346 	 5.171493 
O 	 5.239857 	 -2.040326 	 -4.488036 
O 	 -3.510659 	 -5.695648 	 -2.983478 
O 	 -7.216017 	 4.835424 	 5.660463 
O 	 1.327283 	 -3.489637 	 6.912043 
O 	 3.279377 	 3.070344 	 0.876718 
O 	 -4.056379 	 6.752188 	 6.068761 
O 	 -2.922895 	 -5.391127 	 6.283070 
O 	 -0.193763 	 -0.310719 	 0.046242 
O 	 -3.268362 	 -2.932201 	 -0.119924 
O 	 -2.375067 	 3.640841 	 -1.815013 
O 	 3.735522 	 -6.097647 	 5.654516 
O 	 5.718857 	 -0.872804 	 1.333487 
O 	 3.294771 	 -5.201442 	 0.099955 
O 	 1.840389 	 0.860026 	 6.153075 
O 	 5.728293 	 6.563579 	 -6.469521 
O 	 -5.293302 	 2.558313 	 3.799905 
O 	 3.942999 	 6.560333 	 2.850365 
O 	 3.935118 	 4.201466 	 4.192264 
O 	 2.936058 	 -1.607867 	 5.558954 
O 	 0.581668 	 -6.036714 	 -3.282065 
O 	 3.017095 	 -3.747396 	 -4.272086 
O 	 7.086022 	 6.898043 	 3.846242 
O 	 -0.620867 	 -5.368632 	 3.535593 
O 	 -2.150839 	 5.427842 	 4.367172 
O 	 0.255286 	 -1.671740 	 -2.885457 
O 	 0.330495 	 5.606926 	 -2.667948 
O 	 -5.133100 	 -1.835821 	 -2.737795 
O 	 -4.946544 	 6.023449 	 2.877677 
O 	 -0.421191 	 1.897676 	 1.820516 
O 	 -1.481672 	 7.086551 	 -0.605747 
O 	 -7.090654 	 -6.102421 	 7.366386 
O 	 -2.590734 	 -1.060450 	 7.040053 
O 	 3.674223 	 3.866532 	 -4.956184 
O 	 -2.543388 	 0.820714 	 -4.173314 
O 	 -2.044993 	 3.376725 	 -5.102898 
O 	 4.099376 	 -1.327055 	 -1.327100 
O 	 5.149489 	 1.624564 	 2.945840 
O 	 -6.266760 	 -5.939533 	 -1.650700 
O 	 0.879611 	 3.126645 	 -3.484625 
O 	 -0.252500 	 -3.847354 	 1.225577 
O 	 -7.164064 	 -1.097461 	 5.837017 
O 	 -2.470848 	 -2.731337 	 -3.383545 
O 	 -1.277439 	 5.383882 	 -6.837957 
O 	 -4.160312 	 0.523011 	 -6.375450 
O 	 6.993816 	 -2.508010 	 -1.462602 
O 	 3.568385 	 6.762547 	 -4.592650 
O 	 5.570481 	 -3.568581 	 1.001495 
O 	 6.798678 	 -7.042533 	 0.796373 
O 	 6.931362 	 -3.807476 	 3.283320 
O 	 1.409890 	 1.843413 	 -0.923974 
O 	 5.596260 	 -5.229653 	 -1.251754 
O 	 6.097425 	 1.011899 	 -5.017939 
O 	 -1.636280 	 3.301153 	 5.909249 
O 	 -5.546184 	 -4.314117 	 0.603882 
O 	 6.447619 	 2.390522 	 -2.860964 
O 	 2.783551 	 6.995284 	 -1.761383 
O 	 6.294107 	 -5.249615 	 -4.793160 
O 	 2.341490 	 -3.386846 	 -1.698764 
O 	 -1.214659 	 -3.642398 	 5.629348 
O 	 0.111061 	 -4.811936 	 -5.765249 
O 	 -0.755686 	 1.303278 	 -7.186252 
O 	 -1.898810 	 6.515836 	 -3.786304 
O 	 0.298599 	 0.447490 	 -4.584276 
O 	 -1.458232 	 -5.152420 	 -0.869400 
O 	 2.368938 	 -0.375958 	 1.026962 
O 	 -4.966413 	 5.827808 	 -4.492781 
O 	 6.245802 	 6.898369 	 -3.401952 
O 	 5.087404 	 -1.571476 	 7.191586 
O 	 0.885017 	 4.570388 	 1.070524 
O 	 -0.575407 	 -1.244346 	 4.406318 
K 	 -5.642019 	 1.420778 	 6.045745 
