333
conformation = 76
H 	 -5.873706 	 3.947848 	 0.659301 
H 	 -5.518911 	 5.177419 	 1.411116 
H 	 5.470928 	 1.307198 	 6.336975 
H 	 6.435706 	 0.384629 	 5.467981 
H 	 -4.404759 	 4.037403 	 -7.039196 
H 	 -4.270406 	 5.104183 	 6.783540 
H 	 5.953794 	 4.899006 	 -1.262517 
H 	 -7.454945 	 4.965377 	 -0.819976 
H 	 -5.066839 	 2.543291 	 -3.757851 
H 	 -5.715013 	 3.089762 	 -5.044241 
H 	 -7.537252 	 2.138858 	 -5.921877 
H 	 -7.130985 	 3.559744 	 -6.461766 
H 	 -1.758518 	 0.472195 	 -0.701319 
H 	 -2.620317 	 1.689662 	 -0.964351 
H 	 -5.495935 	 -3.270970 	 -6.018498 
H 	 -3.992076 	 -3.422063 	 -6.524235 
H 	 -2.046921 	 1.963959 	 2.917297 
H 	 -2.217559 	 2.308198 	 4.476744 
H 	 -4.333001 	 -5.410412 	 -6.008157 
H 	 -2.929269 	 -6.071442 	 -6.383845 
H 	 4.251725 	 4.575327 	 0.239073 
H 	 3.888076 	 5.783345 	 -0.590779 
H 	 -1.456429 	 -3.587438 	 -6.064631 
H 	 -2.243898 	 -2.283512 	 -6.779375 
H 	 3.121027 	 -5.657494 	 -6.769654 
H 	 3.129256 	 -4.981054 	 -5.354052 
H 	 -7.128477 	 -3.860145 	 -4.753765 
H 	 -6.355357 	 -2.899868 	 -3.681723 
H 	 1.814829 	 4.990448 	 4.223846 
H 	 0.978523 	 6.209056 	 4.120620 
H 	 7.098020 	 5.757137 	 -6.129455 
H 	 -6.297693 	 5.545122 	 -5.629366 
H 	 4.426848 	 2.847171 	 7.425777 
H 	 3.267447 	 1.907374 	 7.234325 
H 	 -3.356421 	 -0.288479 	 4.797690 
H 	 -4.417125 	 -1.410917 	 4.854817 
H 	 -1.012683 	 -1.009178 	 1.234042 
H 	 -2.410679 	 -1.669573 	 1.536133 
H 	 1.247830 	 -1.962173 	 3.433071 
H 	 2.399353 	 -1.686122 	 2.452974 
H 	 -1.454144 	 6.975984 	 1.394247 
H 	 -1.492559 	 -7.128441 	 2.723446 
H 	 2.703797 	 -4.115608 	 3.417296 
H 	 2.205817 	 -5.488827 	 2.795930 
H 	 -5.956330 	 1.407842 	 0.870919 
H 	 -7.377834 	 1.941855 	 0.384494 
H 	 -4.581494 	 6.561264 	 -1.941050 
H 	 -4.801897 	 5.603802 	 -0.680231 
H 	 2.302664 	 0.233607 	 -3.486741 
H 	 2.722871 	 1.114221 	 -2.393298 
H 	 1.986733 	 4.897412 	 -6.357564 
H 	 0.814007 	 5.767862 	 -6.771482 
H 	 -0.173474 	 -6.996103 	 6.548653 
H 	 -1.021466 	 -7.514637 	 -7.169891 
H 	 2.384257 	 6.807654 	 1.791986 
H 	 0.857747 	 -7.639026 	 1.965527 
H 	 -6.699724 	 -6.843305 	 4.635693 
H 	 -6.202986 	 -6.284267 	 5.931987 
H 	 -6.042191 	 -0.914303 	 1.919130 
H 	 -6.433562 	 -0.500873 	 3.347156 
H 	 5.216220 	 5.299998 	 7.352578 
H 	 6.110932 	 4.633134 	 6.387462 
H 	 -6.874567 	 -1.327808 	 -5.018448 
H 	 -7.279769 	 0.172448 	 -5.202309 
H 	 7.013827 	 3.947861 	 3.609915 
H 	 6.198346 	 2.884385 	 2.754587 
H 	 -5.889513 	 -4.124393 	 5.026402 
H 	 -5.307222 	 -3.435017 	 6.330395 
H 	 -4.328931 	 1.069035 	 -1.955541 
H 	 -5.706200 	 1.592773 	 -1.632895 
H 	 5.339857 	 0.855197 	 0.142670 
H 	 4.984395 	 2.301863 	 0.304180 
H 	 -3.887194 	 0.650260 	 2.202224 
H 	 -3.721587 	 0.254834 	 0.627263 
H 	 1.404902 	 2.340568 	 3.051543 
H 	 2.242669 	 1.213817 	 2.639954 
H 	 2.262731 	 -1.989335 	 -5.584128 
H 	 1.458285 	 -1.611451 	 -6.806960 
H 	 5.292342 	 -3.613473 	 6.959030 
H 	 5.116364 	 -5.016532 	 6.238266 
H 	 0.580540 	 -6.603551 	 4.649557 
H 	 1.937238 	 -6.567369 	 5.393984 
H 	 5.330901 	 -1.058226 	 -4.640542 
H 	 6.116469 	 -2.308777 	 -4.563686 
H 	 -3.600734 	 -6.119914 	 -3.815053 
H 	 -2.744243 	 -6.057669 	 -2.580944 
H 	 -6.917382 	 5.084953 	 6.718294 
H 	 -6.982697 	 5.759896 	 5.263782 
H 	 0.877826 	 -3.855222 	 -7.160831 
H 	 0.345998 	 -3.428489 	 6.365465 
H 	 3.378197 	 2.643612 	 1.624175 
H 	 2.485824 	 3.825210 	 1.075713 
H 	 -4.594310 	 7.135598 	 5.447329 
H 	 -3.190475 	 6.502216 	 5.808162 
H 	 -2.510207 	 -6.091048 	 6.566221 
H 	 -3.732024 	 -5.629379 	 5.776927 
H 	 1.412255 	 -0.267216 	 0.684458 
H 	 -0.053066 	 -0.983027 	 -0.452266 
H 	 -4.167446 	 -2.828435 	 0.373325 
H 	 -3.325958 	 -2.246212 	 -0.842576 
H 	 -1.541752 	 4.076787 	 -1.553188 
H 	 -3.006284 	 4.560836 	 -1.570637 
H 	 4.283151 	 -6.858836 	 5.856343 
H 	 3.501550 	 -5.872758 	 4.715779 
H 	 5.511572 	 -1.687033 	 1.247142 
H 	 6.552917 	 -0.630429 	 1.333438 
H 	 3.845563 	 -4.662953 	 0.873850 
H 	 2.978369 	 -6.014303 	 0.565950 
H 	 2.233947 	 0.019458 	 6.189285 
H 	 1.713208 	 1.246499 	 5.269445 
H 	 5.997100 	 -7.373737 	 -6.777312 
H 	 5.087483 	 6.856367 	 -5.676882 
H 	 -6.000546 	 2.847493 	 3.092251 
H 	 -4.501762 	 2.910734 	 3.560595 
H 	 3.803274 	 5.820661 	 3.464735 
H 	 4.356291 	 6.295560 	 2.115259 
H 	 4.449222 	 3.761282 	 3.728253 
H 	 4.314543 	 4.421504 	 5.168713 
H 	 2.904260 	 -1.739291 	 4.694556 
H 	 2.411434 	 -2.275861 	 6.046695 
H 	 0.088203 	 -5.271275 	 -2.557553 
H 	 -0.077157 	 -6.618828 	 -3.365626 
H 	 3.874703 	 -3.280284 	 -4.165213 
H 	 2.682836 	 -3.642591 	 -3.301681 
H 	 7.028398 	 -7.577492 	 2.960085 
H 	 6.010627 	 6.959976 	 4.121122 
H 	 -0.743447 	 -4.566438 	 4.309003 
H 	 -0.471535 	 -4.710607 	 2.816188 
H 	 -1.740826 	 6.005752 	 3.831553 
H 	 -1.674968 	 4.598143 	 4.429664 
H 	 -0.684888 	 -2.097568 	 -2.860994 
H 	 0.750453 	 -2.187822 	 -2.204840 
H 	 0.796074 	 6.177229 	 -1.971959 
H 	 0.759201 	 4.867880 	 -2.946686 
H 	 -4.385630 	 -1.967430 	 -3.061220 
H 	 -5.435264 	 -0.702065 	 -2.911739 
H 	 -5.515147 	 6.534385 	 3.614396 
H 	 -4.091189 	 5.925733 	 3.455701 
H 	 -0.173094 	 1.284245 	 1.151792 
H 	 -0.197378 	 2.877505 	 1.414587 
H 	 -2.409332 	 6.786643 	 -0.826802 
H 	 -1.496147 	 -6.812978 	 -0.522865 
H 	 -7.660072 	 -5.161485 	 7.191071 
H 	 -6.874093 	 -5.749543 	 -6.622829 
H 	 -1.811463 	 -0.325553 	 7.189069 
H 	 -3.209891 	 -0.438044 	 -7.276427 
H 	 3.615113 	 3.373376 	 -5.677993 
H 	 2.900359 	 3.554006 	 -4.305210 
H 	 -1.756311 	 0.780547 	 -4.570245 
H 	 -2.320309 	 0.794896 	 -3.124004 
H 	 -1.772786 	 4.020651 	 -4.323526 
H 	 -3.030329 	 3.267914 	 -4.784833 
H 	 4.992164 	 -1.509940 	 -1.396852 
H 	 3.940137 	 -0.512164 	 -2.041462 
H 	 5.481722 	 0.851310 	 2.638812 
H 	 5.182007 	 1.673388 	 3.928771 
H 	 -5.422566 	 -5.979523 	 -1.856364 
H 	 -6.669856 	 -6.696136 	 -1.246339 
H 	 1.033699 	 2.529991 	 -2.739764 
H 	 0.449467 	 2.625194 	 -4.168726 
H 	 -0.697361 	 -2.925792 	 1.464483 
H 	 0.742550 	 -3.489901 	 1.424513 
H 	 -6.582905 	 -1.899779 	 5.637789 
H 	 6.961475 	 -1.421644 	 6.262971 
H 	 -2.445890 	 -2.543112 	 -4.307357 
H 	 -2.543484 	 -3.647029 	 -3.276226 
H 	 -1.313175 	 5.287308 	 7.127148 
H 	 -1.730986 	 4.672915 	 -6.414157 
H 	 -4.713845 	 -0.006890 	 -5.852927 
H 	 -3.748620 	 1.146487 	 -5.663852 
H 	 -7.063706 	 -2.273040 	 -1.940946 
H 	 6.597846 	 -3.222113 	 -1.775693 
H 	 3.390182 	 -7.180020 	 -5.015679 
H 	 3.213597 	 6.139967 	 -4.884419 
H 	 6.117817 	 -3.602728 	 1.929996 
H 	 6.182102 	 -3.746252 	 0.448456 
H 	 6.410836 	 -5.954782 	 0.516541 
H 	 6.488604 	 -7.465571 	 0.053580 
H 	 7.141718 	 -2.822351 	 3.371003 
H 	 6.541631 	 -3.848031 	 4.272348 
H 	 1.860703 	 2.031990 	 -0.143451 
H 	 0.685243 	 1.216009 	 -0.755821 
H 	 4.677442 	 -4.986367 	 -0.842872 
H 	 5.637116 	 -5.911058 	 -1.759286 
H 	 5.220038 	 1.216418 	 -5.401091 
H 	 6.077958 	 1.721106 	 -4.168038 
H 	 -1.103206 	 2.624984 	 6.480206 
H 	 -2.582493 	 3.345127 	 6.284099 
H 	 -5.904781 	 -4.648955 	 1.546704 
H 	 -5.825655 	 -4.928054 	 -0.041947 
H 	 5.999401 	 1.986494 	 -2.019303 
H 	 6.781791 	 3.263497 	 -2.377378 
H 	 2.686662 	 6.935841 	 -2.798948 
H 	 2.728439 	 -6.832486 	 -1.776776 
H 	 6.432750 	 -6.064475 	 -4.381992 
H 	 5.455080 	 -5.197208 	 -5.185095 
H 	 3.015815 	 -2.681592 	 -1.472535 
H 	 2.248926 	 -4.037808 	 -0.971345 
H 	 -1.961048 	 -4.084696 	 6.140048 
H 	 -1.492769 	 -2.618596 	 5.491086 
H 	 -0.116168 	 -5.594410 	 -6.126291 
H 	 0.424076 	 -4.896192 	 -4.844736 
H 	 -0.793044 	 1.977562 	 -6.348749 
H 	 0.187181 	 1.305734 	 -7.284035 
H 	 -1.160018 	 6.206200 	 -3.217145 
H 	 -1.751456 	 6.549569 	 -4.612894 
H 	 0.239772 	 -0.127256 	 -3.669390 
H 	 0.801612 	 -0.023020 	 -5.121621 
H 	 -2.197019 	 -4.482636 	 -0.671770 
H 	 -0.707487 	 -4.679937 	 -0.323634 
H 	 2.902607 	 -0.823519 	 0.412936 
H 	 -1.119835 	 -1.315155 	 3.640699 
H 	 -4.069230 	 6.272272 	 -4.520635 
H 	 -4.912438 	 5.015185 	 -4.138984 
H 	 6.668587 	 6.190829 	 -2.982289 
H 	 5.260493 	 6.781330 	 -3.427430 
H 	 4.441852 	 -1.127535 	 -6.934811 
H 	 4.512780 	 -1.493965 	 6.458822 
H 	 0.885155 	 4.832569 	 2.032091 
H 	 1.093832 	 5.501051 	 0.813560 
H 	 -0.871700 	 -0.179928 	 4.660225 
O 	 -5.841585 	 4.925998 	 0.495211 
O 	 6.092953 	 1.260983 	 5.566659 
O 	 -4.026692 	 4.147491 	 6.973459 
O 	 6.879252 	 4.895730 	 -1.598555 
O 	 -4.974082 	 3.246836 	 -4.445835 
O 	 -6.876338 	 2.595606 	 -6.507573 
O 	 -2.666956 	 0.713765 	 -0.947340 
O 	 -4.869888 	 -3.828030 	 -6.533515 
O 	 -2.688020 	 2.156861 	 3.668130 
O 	 -3.647389 	 -6.063893 	 -5.710539 
O 	 4.574125 	 5.460644 	 0.010188 
O 	 -2.200531 	 -2.953648 	 -6.009545 
O 	 3.572450 	 -5.664735 	 -5.900352 
O 	 -6.745376 	 -2.985892 	 -4.582441 
O 	 0.987447 	 5.257213 	 3.821891 
O 	 -6.935135 	 5.371001 	 -6.352022 
O 	 4.017178 	 2.061559 	 -7.064354 
O 	 -4.219678 	 -0.562023 	 4.388298 
O 	 -1.542977 	 -1.510404 	 1.977068 
O 	 2.074888 	 -2.342468 	 3.103746 
O 	 -1.136377 	 6.916013 	 2.351175 
O 	 2.957912 	 -5.073932 	 3.326873 
O 	 -6.400625 	 1.992186 	 0.246920 
O 	 -4.134785 	 5.975796 	 -1.280667 
O 	 3.096906 	 0.697139 	 -3.206835 
O 	 1.755676 	 5.602335 	 -6.961050 
O 	 -0.771112 	 -6.635568 	 7.282923 
O 	 1.643234 	 -7.552195 	 1.380641 
O 	 -5.950956 	 -6.345245 	 5.007104 
O 	 -6.791330 	 -0.915327 	 2.524274 
O 	 5.192167 	 4.497832 	 6.780750 
O 	 -6.486622 	 -0.445912 	 -5.254241 
O 	 6.869010 	 3.609601 	 2.716239 
O 	 -5.664856 	 -3.279445 	 5.450166 
O 	 -5.134532 	 1.266774 	 -2.419615 
O 	 5.548533 	 1.720350 	 -0.178723 
O 	 -4.380755 	 0.451950 	 1.349140 
O 	 2.282931 	 1.952929 	 3.280432 
O 	 1.810968 	 -1.211789 	 -5.938526 
O 	 5.758850 	 -4.261147 	 6.373778 
O 	 1.132911 	 -7.103303 	 5.281852 
O 	 5.242529 	 -2.008519 	 -4.455719 
O 	 -3.596367 	 -5.723993 	 -2.909272 
O 	 -7.221494 	 4.971459 	 5.784521 
O 	 1.153031 	 -3.349857 	 6.895876 
O 	 3.216122 	 3.181488 	 0.869759 
O 	 -4.062441 	 6.813590 	 6.204549 
O 	 -3.003316 	 -5.245866 	 6.346374 
O 	 -0.264682 	 -0.203367 	 0.088094 
O 	 -3.265361 	 -2.799003 	 -0.049330 
O 	 -2.433536 	 3.788948 	 -1.844539 
O 	 3.740860 	 -6.022745 	 5.670081 
O 	 5.537638 	 -0.729304 	 1.361916 
O 	 3.266406 	 -5.123077 	 0.178741 
O 	 1.833767 	 0.944970 	 6.260580 
O 	 5.684401 	 6.654692 	 -6.472107 
O 	 -5.422885 	 2.736633 	 3.821825 
O 	 3.897702 	 6.666995 	 2.905654 
O 	 3.854328 	 4.283061 	 4.273582 
O 	 2.939418 	 -1.506151 	 5.621799 
O 	 0.516079 	 -5.887012 	 -3.145674 
O 	 2.960929 	 -3.587561 	 -4.280249 
O 	 6.938188 	 6.993451 	 3.879695 
O 	 -0.677496 	 -5.245162 	 3.604854 
O 	 -2.195949 	 5.474888 	 4.512762 
O 	 0.201529 	 -1.619775 	 -2.782758 
O 	 0.300423 	 5.651247 	 -2.626232 
O 	 -5.191331 	 -1.626166 	 -2.622520 
O 	 -4.941320 	 6.105236 	 2.969668 
O 	 -0.342501 	 2.008001 	 1.827510 
O 	 -1.511930 	 7.130487 	 -0.548064 
O 	 -7.195130 	 -6.015376 	 7.401566 
O 	 -2.518455 	 -0.988984 	 7.107752 
O 	 3.513370 	 4.008112 	 -4.892890 
O 	 -2.587729 	 0.900184 	 -4.076702 
O 	 -2.093535 	 3.466176 	 -5.059174 
O 	 4.047576 	 -1.249218 	 -1.374998 
O 	 5.043101 	 1.698884 	 2.949135 
O 	 -6.358897 	 -5.828798 	 -1.586902 
O 	 0.793788 	 3.232194 	 -3.444714 
O 	 -0.183891 	 -3.773265 	 1.298246 
O 	 -7.188508 	 -1.101727 	 5.765909 
O 	 -2.596323 	 -2.657455 	 -3.357112 
O 	 -1.281927 	 5.470028 	 -6.812001 
O 	 -4.172443 	 0.661878 	 -6.361681 
O 	 6.980136 	 -2.396305 	 -1.395448 
O 	 3.538589 	 6.943500 	 -4.461257 
O 	 5.539299 	 -3.483936 	 1.136370 
O 	 6.697757 	 -6.865671 	 0.806948 
O 	 6.822742 	 -3.744195 	 3.356362 
O 	 1.386571 	 1.876491 	 -0.972672 
O 	 5.564949 	 -5.064559 	 -1.241579 
O 	 6.082850 	 1.096900 	 -4.963864 
O 	 -1.584559 	 3.341071 	 5.965331 
O 	 -5.636740 	 -4.236234 	 0.680754 
O 	 6.353654 	 2.515839 	 -2.807983 
O 	 2.660242 	 7.079911 	 -1.797837 
O 	 6.285254 	 -5.151113 	 -4.688905 
O 	 2.292193 	 -3.357642 	 -1.666363 
O 	 -1.245852 	 -3.545604 	 5.650426 
O 	 0.117429 	 -4.714667 	 -5.740251 
O 	 -0.814298 	 1.416193 	 -7.146501 
O 	 -1.961378 	 6.634704 	 -3.658931 
O 	 0.224983 	 0.468429 	 -4.487618 
O 	 -1.430811 	 -5.093284 	 -0.880362 
O 	 2.366742 	 -0.267667 	 0.994610 
O 	 -4.968350 	 5.947728 	 -4.441989 
O 	 6.171046 	 6.962977 	 -3.276419 
O 	 5.036532 	 -1.475924 	 7.236696 
O 	 0.859693 	 4.602726 	 1.100143 
O 	 -0.674791 	 -1.095317 	 4.494353 
K 	 -5.708236 	 1.498236 	 6.122982 
