333
conformation = 14
H 	 -6.064480 	 4.056324 	 0.800924 
H 	 -5.653405 	 5.344141 	 1.400315 
H 	 5.362611 	 1.349269 	 6.022922 
H 	 6.475819 	 0.326698 	 5.418788 
H 	 -3.808768 	 4.242518 	 -6.603909 
H 	 -4.219111 	 5.041565 	 7.051992 
H 	 6.411637 	 5.023207 	 -0.816335 
H 	 -6.961939 	 5.165233 	 -0.820962 
H 	 -5.018281 	 2.595254 	 -3.800971 
H 	 -5.537923 	 2.933366 	 -5.165520 
H 	 -7.437790 	 2.156139 	 -5.973417 
H 	 -6.941851 	 3.557536 	 -6.436111 
H 	 -1.631509 	 0.465231 	 -0.839587 
H 	 -2.113029 	 1.879715 	 -1.139535 
H 	 -5.464371 	 -3.585301 	 -5.857458 
H 	 -3.991786 	 -3.182964 	 -6.348403 
H 	 -1.894851 	 2.279701 	 2.950268 
H 	 -2.394769 	 3.004850 	 4.263446 
H 	 -3.941835 	 -5.518101 	 -6.251093 
H 	 -2.658697 	 -6.357242 	 -5.976235 
H 	 4.265356 	 5.021021 	 0.376446 
H 	 3.970783 	 6.240692 	 -0.535745 
H 	 -1.446870 	 -3.588071 	 -5.910734 
H 	 -2.083484 	 -2.302352 	 -6.714950 
H 	 3.222644 	 -5.459352 	 -6.757240 
H 	 3.099826 	 -4.954883 	 -5.256412 
H 	 -7.344885 	 -4.015631 	 -4.364604 
H 	 -6.310522 	 -2.905205 	 -3.610421 
H 	 2.202567 	 4.996492 	 4.324291 
H 	 1.069432 	 5.946187 	 4.600175 
H 	 7.237109 	 5.727368 	 -6.369787 
H 	 -6.366761 	 5.601943 	 -5.614306 
H 	 4.172686 	 3.051851 	 7.233697 
H 	 3.263085 	 1.818807 	 7.125877 
H 	 -3.583440 	 -0.700637 	 5.118487 
H 	 -4.780211 	 -1.427449 	 4.639981 
H 	 -0.933858 	 -0.872252 	 0.925325 
H 	 -2.275335 	 -1.700923 	 1.293157 
H 	 0.935442 	 -2.060306 	 3.299052 
H 	 2.062558 	 -1.625923 	 2.314421 
H 	 -1.293487 	 -7.567844 	 1.182614 
H 	 -0.955974 	 -6.934197 	 2.600870 
H 	 2.370197 	 -4.313346 	 3.026858 
H 	 2.564214 	 -5.824108 	 2.776310 
H 	 -6.129315 	 1.575844 	 0.963192 
H 	 -7.437781 	 1.976294 	 0.281461 
H 	 -4.531090 	 5.864758 	 -2.320475 
H 	 -4.631432 	 5.714820 	 -0.765612 
H 	 2.685179 	 1.062545 	 -3.849338 
H 	 2.268010 	 1.180269 	 -2.413079 
H 	 2.159476 	 4.797147 	 -6.720266 
H 	 1.034581 	 5.813020 	 -7.293703 
H 	 -0.131014 	 -6.735383 	 6.476894 
H 	 -0.992945 	 -7.580416 	 -7.408296 
H 	 2.263048 	 6.850364 	 2.061566 
H 	 0.861676 	 -7.568633 	 1.514069 
H 	 -6.327173 	 -6.391687 	 4.250755 
H 	 -6.390557 	 -5.968774 	 5.778729 
H 	 -6.121816 	 -0.786757 	 2.028078 
H 	 -6.483956 	 -0.259950 	 3.440310 
H 	 5.201803 	 5.400909 	 7.295001 
H 	 6.018664 	 4.465651 	 6.513190 
H 	 -6.553311 	 -1.395517 	 -5.520795 
H 	 -7.287659 	 -0.043968 	 -5.362832 
H 	 6.949780 	 4.000122 	 3.589959 
H 	 6.639261 	 3.050642 	 2.456432 
H 	 -5.646697 	 -4.094234 	 5.138365 
H 	 -5.146318 	 -3.321084 	 6.499071 
H 	 -4.591160 	 1.050272 	 -1.759736 
H 	 -6.070518 	 1.374232 	 -1.767686 
H 	 5.385119 	 0.760674 	 -0.050516 
H 	 4.739648 	 2.245030 	 -0.008741 
H 	 -3.990064 	 0.477305 	 2.241810 
H 	 -3.656503 	 0.827358 	 0.716561 
H 	 1.414263 	 1.819514 	 2.939276 
H 	 2.747956 	 1.167080 	 3.025693 
H 	 1.511605 	 -1.536091 	 -5.162671 
H 	 1.607133 	 -1.843989 	 -6.651053 
H 	 5.925041 	 -2.941302 	 6.423267 
H 	 5.029563 	 -4.185863 	 6.351775 
H 	 0.528139 	 -6.293224 	 4.409732 
H 	 1.797047 	 -6.592410 	 5.338898 
H 	 5.337459 	 -0.788076 	 -4.372195 
H 	 6.017020 	 -2.162570 	 -4.156942 
H 	 -3.533288 	 -5.302568 	 -4.002480 
H 	 -3.091170 	 -6.243751 	 -2.921431 
H 	 -6.844396 	 5.264010 	 6.301559 
H 	 -7.366160 	 5.517385 	 4.858772 
H 	 1.477751 	 -3.965987 	 -7.036080 
H 	 0.620350 	 -3.519893 	 6.718933 
H 	 3.572462 	 3.054514 	 1.935087 
H 	 2.427663 	 3.729398 	 0.948377 
H 	 -4.879152 	 -7.545948 	 5.794515 
H 	 -3.634231 	 6.721429 	 4.979744 
H 	 -2.312674 	 -5.959594 	 6.591458 
H 	 -3.599152 	 -5.949177 	 5.836946 
H 	 1.412297 	 -0.265596 	 0.760469 
H 	 0.049111 	 -0.673616 	 -0.793667 
H 	 -3.938588 	 -3.547354 	 0.211391 
H 	 -3.970599 	 -2.250221 	 -0.680317 
H 	 -1.596232 	 4.320512 	 -1.843532 
H 	 -3.077678 	 4.217910 	 -1.448797 
H 	 4.137799 	 -6.727868 	 5.372997 
H 	 3.382986 	 -5.357122 	 5.024383 
H 	 5.389286 	 -1.529905 	 1.270808 
H 	 6.644971 	 -0.936352 	 1.891990 
H 	 3.948591 	 -4.532413 	 0.574041 
H 	 2.689440 	 -5.610757 	 0.730648 
H 	 1.953492 	 0.111910 	 5.949819 
H 	 1.863016 	 1.494429 	 5.110489 
H 	 6.203160 	 -7.333928 	 -6.240254 
H 	 4.889442 	 6.809919 	 -5.667870 
H 	 -5.723137 	 3.136458 	 3.105804 
H 	 -4.231938 	 2.471300 	 3.496007 
H 	 4.073509 	 5.706766 	 2.912369 
H 	 4.450380 	 6.849949 	 1.922148 
H 	 3.562679 	 3.395677 	 4.188372 
H 	 4.273512 	 4.482977 	 5.175553 
H 	 2.831146 	 -1.700435 	 4.565892 
H 	 2.311604 	 -2.333357 	 5.868923 
H 	 -0.022397 	 -5.521429 	 -2.689623 
H 	 0.426160 	 -6.984926 	 -3.305706 
H 	 3.706020 	 -2.965166 	 -4.253636 
H 	 2.817119 	 -3.658607 	 -3.270178 
H 	 -7.368959 	 6.784594 	 2.923075 
H 	 6.158090 	 7.128653 	 3.719914 
H 	 -0.849510 	 -4.705398 	 4.218418 
H 	 -0.351033 	 -4.772984 	 2.753460 
H 	 -1.649859 	 6.250262 	 3.522584 
H 	 -1.566932 	 5.167344 	 4.655806 
H 	 -0.582774 	 -2.054969 	 -3.158328 
H 	 0.917181 	 -2.083262 	 -2.628004 
H 	 1.163976 	 6.228371 	 -2.336764 
H 	 0.536934 	 5.246806 	 -3.389725 
H 	 -4.117683 	 -2.060076 	 -3.125174 
H 	 -5.390965 	 -1.061182 	 -3.096097 
H 	 -5.321232 	 6.675598 	 3.569278 
H 	 -4.419496 	 5.507878 	 3.142392 
H 	 -0.850151 	 1.387995 	 1.192934 
H 	 -0.230854 	 2.861689 	 1.385491 
H 	 -2.322751 	 6.809600 	 -0.872770 
H 	 -1.680097 	 -6.661563 	 -0.600451 
H 	 7.248987 	 -5.276806 	 7.373955 
H 	 -6.354024 	 -5.491393 	 -6.903072 
H 	 -2.105226 	 -0.114560 	 6.969642 
H 	 -3.374573 	 -0.487291 	 -7.289254 
H 	 3.813392 	 3.122799 	 -5.564426 
H 	 3.540005 	 3.647770 	 -4.054553 
H 	 -1.548392 	 0.682277 	 -4.264086 
H 	 -2.708937 	 0.926113 	 -3.264250 
H 	 -1.466750 	 3.203263 	 -4.408933 
H 	 -2.726764 	 2.905112 	 -5.066783 
H 	 4.962615 	 -1.499390 	 -1.299009 
H 	 3.982723 	 -0.410461 	 -1.897884 
H 	 5.294641 	 0.812802 	 2.480942 
H 	 5.390650 	 1.583126 	 3.865176 
H 	 -5.319736 	 -5.727812 	 -2.341659 
H 	 -5.827551 	 -6.632039 	 -1.233425 
H 	 0.938132 	 3.027910 	 -2.512664 
H 	 0.974571 	 2.301556 	 -3.821493 
H 	 -0.762162 	 -2.816140 	 1.524491 
H 	 0.555489 	 -3.578519 	 1.076080 
H 	 -6.712561 	 -1.592657 	 5.795850 
H 	 7.199934 	 -0.974576 	 6.926089 
H 	 -2.413046 	 -2.675011 	 -4.218434 
H 	 -2.469296 	 -3.436885 	 -2.923967 
H 	 -1.499132 	 4.794593 	 7.442627 
H 	 -1.087999 	 5.203005 	 -5.990566 
H 	 -5.015284 	 0.051899 	 -6.267684 
H 	 -3.707215 	 0.473670 	 -5.507462 
H 	 -7.128441 	 -2.255681 	 -1.208656 
H 	 6.944801 	 -3.410360 	 -1.705071 
H 	 3.164520 	 -7.323793 	 -5.173561 
H 	 2.979916 	 6.005192 	 -5.185817 
H 	 6.099163 	 -3.478976 	 1.570528 
H 	 6.050718 	 -3.303178 	 0.081226 
H 	 6.429738 	 -6.580289 	 0.170464 
H 	 6.588803 	 6.906158 	 0.812098 
H 	 -7.228559 	 -2.871251 	 3.260834 
H 	 6.780801 	 -3.561818 	 4.248810 
H 	 2.164818 	 2.151681 	 -0.249552 
H 	 0.737458 	 1.479484 	 -0.395805 
H 	 4.754972 	 -5.630999 	 -1.176470 
H 	 5.980318 	 -5.616423 	 -2.215021 
H 	 5.233103 	 1.393011 	 -5.675697 
H 	 6.012366 	 1.743237 	 -4.278059 
H 	 -1.401855 	 2.701194 	 6.287785 
H 	 -2.803355 	 3.494627 	 6.447938 
H 	 -5.493821 	 -4.859827 	 1.148599 
H 	 -5.922635 	 -4.562566 	 -0.260709 
H 	 6.197658 	 2.328148 	 -1.928761 
H 	 6.762216 	 3.420009 	 -2.844690 
H 	 3.383475 	 -7.422454 	 -2.400917 
H 	 2.593139 	 -7.002479 	 -1.201884 
H 	 6.407502 	 -6.048656 	 -4.485639 
H 	 5.305615 	 -5.247537 	 -5.195305 
H 	 2.992814 	 -2.418106 	 -1.446010 
H 	 2.361341 	 -3.852756 	 -1.056174 
H 	 -2.012538 	 -3.804523 	 5.994747 
H 	 -1.202022 	 -2.548229 	 5.334854 
H 	 -0.249928 	 -5.400425 	 -6.385807 
H 	 0.269764 	 -5.069397 	 -4.953912 
H 	 -0.698654 	 1.506420 	 -6.325074 
H 	 0.226658 	 1.353960 	 7.392681 
H 	 -1.218806 	 6.428706 	 -3.343650 
H 	 -1.488864 	 6.560409 	 -4.877695 
H 	 0.430012 	 0.012311 	 -3.922709 
H 	 0.772588 	 0.298031 	 -5.460656 
H 	 -2.203913 	 -4.318838 	 -1.165417 
H 	 -1.053272 	 -4.365938 	 -0.145846 
H 	 3.017633 	 -0.480817 	 0.630148 
H 	 -0.987308 	 -0.946979 	 3.485489 
H 	 -4.140495 	 6.390393 	 -4.703805 
H 	 -4.922403 	 5.028183 	 -4.432789 
H 	 6.829328 	 6.834071 	 -2.847572 
H 	 5.619991 	 6.426544 	 -3.841745 
H 	 5.088425 	 -1.612398 	 -6.776667 
H 	 4.245874 	 -1.386569 	 6.813185 
H 	 0.829227 	 5.194851 	 1.915130 
H 	 0.653753 	 5.345111 	 0.454863 
H 	 -0.036543 	 -0.341091 	 4.648986 
O 	 -5.773319 	 4.931160 	 0.502180 
O 	 6.023682 	 1.219675 	 5.313336 
O 	 -4.093448 	 4.091937 	 7.351962 
O 	 7.162650 	 5.021324 	 -1.401133 
O 	 -4.818407 	 3.190309 	 -4.564396 
O 	 -6.804386 	 2.567420 	 -6.547667 
O 	 -2.453577 	 0.952208 	 -1.083604 
O 	 -4.812442 	 -3.663665 	 -6.612453 
O 	 -2.580450 	 2.270314 	 3.648614 
O 	 -3.522690 	 -6.147842 	 -5.615207 
O 	 4.710931 	 5.772002 	 -0.075210 
O 	 -2.136193 	 -2.894628 	 -5.919168 
O 	 3.459367 	 -5.681118 	 -5.839916 
O 	 -6.731805 	 -3.218653 	 -4.443152 
O 	 1.244862 	 5.124267 	 4.133190 
O 	 -6.816509 	 5.248133 	 -6.402804 
O 	 4.016763 	 2.224969 	 -7.201314 
O 	 -4.282168 	 -0.613555 	 4.460323 
O 	 -1.450431 	 -1.455277 	 1.719609 
O 	 1.830442 	 -2.324698 	 2.964676 
O 	 -0.897131 	 7.113616 	 2.082902 
O 	 3.017906 	 -5.028379 	 2.980247 
O 	 -6.484074 	 1.991202 	 0.163485 
O 	 -4.138279 	 6.147380 	 -1.491379 
O 	 2.960043 	 0.808409 	 -2.941003 
O 	 1.968220 	 5.749717 	 -6.975422 
O 	 -0.769412 	 -6.606275 	 7.286389 
O 	 1.856498 	 -7.507995 	 1.332445 
O 	 -5.779631 	 -6.118415 	 5.027077 
O 	 -6.728098 	 -0.942966 	 2.811105 
O 	 5.075012 	 4.580390 	 6.835141 
O 	 -6.366304 	 -0.459728 	 -5.341661 
O 	 7.240416 	 3.800919 	 2.673499 
O 	 -5.466149 	 -3.211222 	 5.534680 
O 	 -5.347911 	 1.158074 	 -2.420907 
O 	 5.559100 	 1.730768 	 -0.265687 
O 	 -4.339715 	 0.492125 	 1.342922 
O 	 2.194961 	 1.808325 	 3.517379 
O 	 1.984809 	 -1.211712 	 -6.017168 
O 	 5.954510 	 -3.930105 	 6.361703 
O 	 0.889604 	 -6.920421 	 5.055333 
O 	 5.168977 	 -1.718046 	 -4.511168 
O 	 -3.493288 	 -5.343141 	 -2.991214 
O 	 -7.266966 	 4.837218 	 5.549013 
O 	 1.540206 	 -3.426200 	 7.028613 
O 	 3.253936 	 3.226072 	 1.000413 
O 	 -4.024743 	 6.852065 	 5.921163 
O 	 -3.001193 	 -5.310687 	 6.240344 
O 	 -0.125704 	 -0.175814 	 0.028184 
O 	 -3.321039 	 -2.805330 	 -0.170588 
O 	 -2.309303 	 3.666689 	 -1.732624 
O 	 3.701128 	 -5.975279 	 5.723926 
O 	 5.877777 	 -0.661587 	 1.362897 
O 	 3.202926 	 -5.071070 	 0.093774 
O 	 1.753400 	 1.087400 	 6.051510 
O 	 5.609585 	 6.800055 	 -6.416401 
O 	 -5.185217 	 2.549458 	 3.721512 
O 	 4.101314 	 6.701000 	 2.840118 
O 	 3.963254 	 4.302891 	 4.221555 
O 	 2.824025 	 -1.536413 	 5.528493 
O 	 0.508722 	 -6.009774 	 -3.388091 
O 	 3.052923 	 -3.658497 	 -4.258574 
O 	 7.149317 	 7.139631 	 3.731463 
O 	 -0.619569 	 -5.378023 	 3.486011 
O 	 -2.179116 	 5.688141 	 4.144730 
O 	 0.180416 	 -1.458108 	 -2.913008 
O 	 0.323201 	 5.813324 	 -2.619408 
O 	 -5.056013 	 -1.939197 	 -2.841999 
O 	 -5.003873 	 6.200793 	 2.781102 
O 	 -0.585232 	 2.057239 	 1.875119 
O 	 -1.555259 	 7.267807 	 -0.549991 
O 	 -6.979309 	 -5.973264 	 7.399742 
O 	 -2.747831 	 -0.881385 	 6.987932 
O 	 3.821253 	 3.919038 	 -4.975200 
O 	 -2.524886 	 0.904726 	 -4.214089 
O 	 -2.030331 	 3.580593 	 -5.118401 
O 	 4.089234 	 -1.109474 	 -1.195276 
O 	 5.164696 	 1.675817 	 2.899740 
O 	 -6.110435 	 -5.810923 	 -1.702697 
O 	 0.973072 	 3.199868 	 -3.462674 
O 	 -0.391589 	 -3.766340 	 1.231268 
O 	 -7.219895 	 -0.794862 	 6.072464 
O 	 -2.328789 	 -2.549600 	 -3.272357 
O 	 -1.287840 	 5.612765 	 -6.866735 
O 	 -4.231327 	 0.640674 	 -6.359270 
O 	 6.888316 	 -2.443717 	 -1.525720 
O 	 3.469566 	 6.760421 	 -4.757226 
O 	 5.430191 	 -3.445324 	 0.841735 
O 	 6.946145 	 -7.099277 	 0.835179 
O 	 7.037263 	 -3.621348 	 3.297571 
O 	 1.382381 	 2.071139 	 -0.882314 
O 	 5.705210 	 -5.355484 	 -1.337436 
O 	 5.985613 	 1.120469 	 -5.122576 
O 	 -1.857598 	 3.560017 	 6.054125 
O 	 -5.552604 	 -4.138167 	 0.528794 
O 	 6.541639 	 2.446148 	 -2.846011 
O 	 2.944232 	 7.106899 	 -1.635636 
O 	 6.240476 	 -5.168137 	 -4.862281 
O 	 2.311922 	 -3.107714 	 -1.691917 
O 	 -1.144681 	 -3.445844 	 5.640821 
O 	 -0.026183 	 -4.653158 	 -5.800525 
O 	 -0.708399 	 1.419507 	 -7.302607 
O 	 -1.908416 	 6.711484 	 -4.010921 
O 	 0.346504 	 0.707209 	 -4.665853 
O 	 -1.585350 	 -4.915438 	 -0.781079 
O 	 2.274355 	 -0.294687 	 1.254269 
O 	 -5.022856 	 6.006030 	 -4.480055 
O 	 6.225518 	 7.159293 	 -3.539439 
O 	 5.119220 	 -1.441273 	 7.198797 
O 	 0.800356 	 4.643331 	 1.136590 
O 	 -0.422979 	 -1.160398 	 4.243753 
K 	 -5.597087 	 1.598912 	 6.039067 
