333
conformation = 75
H 	 -5.877595 	 3.901525 	 0.650333 
H 	 -5.522883 	 5.136898 	 1.416474 
H 	 5.461035 	 1.253643 	 6.338062 
H 	 6.441906 	 0.338551 	 5.462519 
H 	 -4.398475 	 3.989963 	 -7.040528 
H 	 -4.269267 	 5.065412 	 6.793583 
H 	 5.963420 	 4.854941 	 -1.258296 
H 	 -7.454678 	 4.905630 	 -0.821071 
H 	 -5.073012 	 2.503565 	 -3.751000 
H 	 -5.712947 	 3.044545 	 -5.047626 
H 	 -7.535901 	 2.108407 	 -5.928514 
H 	 -7.134166 	 3.515346 	 -6.451991 
H 	 -1.750726 	 0.432938 	 -0.706272 
H 	 -2.622027 	 1.646232 	 -0.972811 
H 	 -5.498576 	 -3.315113 	 -6.013001 
H 	 -3.986732 	 -3.470036 	 -6.519717 
H 	 -2.040651 	 1.918939 	 2.926914 
H 	 -2.216465 	 2.258661 	 4.475569 
H 	 -4.328066 	 -5.448145 	 -6.014148 
H 	 -2.919707 	 -6.124884 	 -6.371491 
H 	 4.242993 	 4.531653 	 0.230799 
H 	 3.892217 	 5.738287 	 -0.594633 
H 	 -1.453746 	 -3.630160 	 -6.071640 
H 	 -2.252345 	 -2.323075 	 -6.780276 
H 	 3.129761 	 -5.703382 	 -6.764570 
H 	 3.120688 	 -5.030988 	 -5.351825 
H 	 -7.133000 	 -3.914116 	 -4.753970 
H 	 -6.351538 	 -2.933611 	 -3.676984 
H 	 1.822275 	 4.948247 	 4.219683 
H 	 0.978478 	 6.164658 	 4.113240 
H 	 7.102068 	 5.699371 	 -6.118205 
H 	 -6.294731 	 5.496693 	 -5.631744 
H 	 4.439142 	 2.799772 	 7.425076 
H 	 3.250093 	 1.861115 	 7.236881 
H 	 -3.365635 	 -0.326424 	 4.797260 
H 	 -4.420715 	 -1.458333 	 4.842327 
H 	 -1.011007 	 -1.063255 	 1.237037 
H 	 -2.398264 	 -1.700095 	 1.538083 
H 	 1.244691 	 -2.002202 	 3.431310 
H 	 2.397784 	 -1.740095 	 2.461668 
H 	 -1.454750 	 6.933969 	 1.386956 
H 	 -1.502936 	 -7.180577 	 2.742132 
H 	 2.700504 	 -4.166192 	 3.403581 
H 	 2.214650 	 -5.529312 	 2.801949 
H 	 -5.964437 	 1.364248 	 0.852669 
H 	 -7.384147 	 1.905044 	 0.377844 
H 	 -4.588939 	 6.513334 	 -1.940366 
H 	 -4.807213 	 5.562583 	 -0.677196 
H 	 2.305295 	 0.191733 	 -3.491263 
H 	 2.713970 	 1.060521 	 -2.400338 
H 	 1.969098 	 4.840482 	 -6.352367 
H 	 0.813876 	 5.725089 	 -6.784322 
H 	 -0.172557 	 -7.044251 	 6.552274 
H 	 -1.018386 	 -7.563124 	 -7.176971 
H 	 2.380749 	 6.752606 	 1.792936 
H 	 0.861432 	 -7.697991 	 1.971186 
H 	 -6.699490 	 -6.882370 	 4.627123 
H 	 -6.205783 	 -6.328397 	 5.928871 
H 	 -6.048031 	 -0.972142 	 1.922237 
H 	 -6.444534 	 -0.540508 	 3.349306 
H 	 5.213469 	 5.248607 	 7.348463 
H 	 6.117659 	 4.586405 	 6.390569 
H 	 -6.868991 	 -1.369844 	 -5.011964 
H 	 -7.282396 	 0.137762 	 -5.194352 
H 	 7.014036 	 3.887085 	 3.616841 
H 	 6.196600 	 2.844682 	 2.754473 
H 	 -5.898521 	 -4.166778 	 5.026148 
H 	 -5.303065 	 -3.484347 	 6.344686 
H 	 -4.330909 	 1.021797 	 -1.953514 
H 	 -5.704873 	 1.556928 	 -1.630989 
H 	 5.352892 	 0.803110 	 0.162949 
H 	 4.976307 	 2.257446 	 0.306839 
H 	 -3.872679 	 0.589999 	 2.205702 
H 	 -3.725702 	 0.210482 	 0.624786 
H 	 1.407567 	 2.291976 	 3.061474 
H 	 2.246731 	 1.169737 	 2.646871 
H 	 2.280561 	 -2.038780 	 -5.585817 
H 	 1.467244 	 -1.648959 	 -6.814987 
H 	 5.287298 	 -3.664299 	 6.968903 
H 	 5.124885 	 -5.060692 	 6.249132 
H 	 0.585424 	 -6.658067 	 4.645612 
H 	 1.941226 	 -6.610610 	 5.402207 
H 	 5.329256 	 -1.109047 	 -4.642453 
H 	 6.117224 	 -2.356092 	 -4.555836 
H 	 -3.615583 	 -6.171233 	 -3.823144 
H 	 -2.756760 	 -6.098505 	 -2.566156 
H 	 -6.918613 	 5.037931 	 6.710826 
H 	 -6.980898 	 5.715983 	 5.268260 
H 	 0.875556 	 -3.902528 	 -7.164875 
H 	 0.359335 	 -3.479538 	 6.364724 
H 	 3.376671 	 2.590568 	 1.624785 
H 	 2.484851 	 3.775827 	 1.095781 
H 	 -4.598196 	 7.089221 	 5.436000 
H 	 -3.177467 	 6.454271 	 5.815151 
H 	 -2.506198 	 -6.137374 	 6.575817 
H 	 -3.732193 	 -5.665660 	 5.779845 
H 	 1.403126 	 -0.316474 	 0.681841 
H 	 -0.056150 	 -1.020942 	 -0.459978 
H 	 -4.177265 	 -2.861864 	 0.381510 
H 	 -3.323539 	 -2.287363 	 -0.834852 
H 	 -1.542154 	 4.038587 	 -1.560175 
H 	 -3.013616 	 4.518570 	 -1.578114 
H 	 4.299266 	 -6.893946 	 5.864265 
H 	 3.509868 	 -5.920182 	 4.712325 
H 	 5.511552 	 -1.749177 	 1.247100 
H 	 6.553655 	 -0.670070 	 1.343777 
H 	 3.857004 	 -4.707099 	 0.872846 
H 	 2.980467 	 -6.061149 	 0.572302 
H 	 2.243083 	 -0.014553 	 6.185546 
H 	 1.713085 	 1.202039 	 5.265047 
H 	 5.976423 	 -7.423941 	 -6.777643 
H 	 5.076577 	 6.810125 	 -5.669140 
H 	 -5.988883 	 2.810941 	 3.096281 
H 	 -4.499200 	 2.859738 	 3.552863 
H 	 3.816879 	 5.775448 	 3.463663 
H 	 4.355027 	 6.249691 	 2.108382 
H 	 4.442553 	 3.695555 	 3.738874 
H 	 4.316480 	 4.377571 	 5.172086 
H 	 2.897531 	 -1.795169 	 4.689944 
H 	 2.410468 	 -2.318597 	 6.053619 
H 	 0.096567 	 -5.312285 	 -2.555335 
H 	 -0.074864 	 -6.668618 	 -3.376102 
H 	 3.869678 	 -3.327257 	 -4.173840 
H 	 2.682075 	 -3.697771 	 -3.297529 
H 	 7.036060 	 -7.615661 	 2.969163 
H 	 6.009959 	 6.924421 	 4.128991 
H 	 -0.748189 	 -4.603808 	 4.315137 
H 	 -0.485010 	 -4.745600 	 2.815347 
H 	 -1.740934 	 5.958559 	 3.829118 
H 	 -1.672119 	 4.556518 	 4.443766 
H 	 -0.687040 	 -2.130033 	 -2.859774 
H 	 0.751477 	 -2.237983 	 -2.207520 
H 	 0.804960 	 6.131165 	 -1.975410 
H 	 0.762917 	 4.823741 	 -2.943234 
H 	 -4.378243 	 -2.010722 	 -3.071672 
H 	 -5.430272 	 -0.748371 	 -2.915248 
H 	 -5.517942 	 6.500808 	 3.619630 
H 	 -4.091003 	 5.878332 	 3.443371 
H 	 -0.167644 	 1.232669 	 1.160463 
H 	 -0.201818 	 2.840338 	 1.417896 
H 	 -2.408003 	 6.748717 	 -0.829159 
H 	 -1.500341 	 -6.850992 	 -0.513901 
H 	 -7.655170 	 -5.215007 	 7.189277 
H 	 -6.854246 	 -5.786590 	 -6.618558 
H 	 -1.805558 	 -0.371773 	 7.186778 
H 	 -3.216313 	 -0.485311 	 -7.268450 
H 	 3.608502 	 3.315180 	 -5.678552 
H 	 2.901962 	 3.507308 	 -4.296634 
H 	 -1.746195 	 0.736538 	 -4.566879 
H 	 -2.318497 	 0.754369 	 -3.121925 
H 	 -1.769571 	 3.962154 	 -4.317682 
H 	 -3.027429 	 3.244312 	 -4.778828 
H 	 4.978842 	 -1.548947 	 -1.401463 
H 	 3.936765 	 -0.555280 	 -2.040117 
H 	 5.476584 	 0.812627 	 2.639615 
H 	 5.180258 	 1.619596 	 3.917305 
H 	 -5.415324 	 -6.006126 	 -1.858866 
H 	 -6.680767 	 -6.746414 	 -1.231061 
H 	 1.030369 	 2.483080 	 -2.747178 
H 	 0.453431 	 2.586415 	 -4.172280 
H 	 -0.695358 	 -2.972132 	 1.464077 
H 	 0.738527 	 -3.535096 	 1.427195 
H 	 -6.577893 	 -1.936892 	 5.649109 
H 	 6.955032 	 -1.459902 	 6.261956 
H 	 -2.437888 	 -2.585426 	 -4.314271 
H 	 -2.531285 	 -3.686243 	 -3.284235 
H 	 -1.307666 	 5.238489 	 7.116718 
H 	 -1.745307 	 4.627824 	 -6.425225 
H 	 -4.707418 	 -0.047886 	 -5.838524 
H 	 -3.736768 	 1.103884 	 -5.655100 
H 	 -7.064318 	 -2.316558 	 -1.950801 
H 	 6.600278 	 -3.271057 	 -1.770990 
H 	 3.391443 	 -7.215074 	 -5.013681 
H 	 3.199970 	 6.092373 	 -4.880554 
H 	 6.124029 	 -3.657858 	 1.925710 
H 	 6.195968 	 -3.781769 	 0.451353 
H 	 6.416433 	 -6.001705 	 0.516785 
H 	 6.500383 	 -7.521835 	 0.053888 
H 	 7.138541 	 -2.861384 	 3.375563 
H 	 6.536245 	 -3.884342 	 4.260502 
H 	 1.865503 	 1.997741 	 -0.131236 
H 	 0.689811 	 1.162388 	 -0.752699 
H 	 4.669303 	 -5.030555 	 -0.847263 
H 	 5.630337 	 -5.962034 	 -1.750526 
H 	 5.222828 	 1.172758 	 -5.406730 
H 	 6.083130 	 1.675633 	 -4.181777 
H 	 -1.109499 	 2.585719 	 6.480862 
H 	 -2.598038 	 3.306526 	 6.275946 
H 	 -5.905263 	 -4.704472 	 1.535669 
H 	 -5.817567 	 -4.961408 	 -0.035474 
H 	 6.005407 	 1.939651 	 -2.019337 
H 	 6.775629 	 3.212471 	 -2.362221 
H 	 2.678158 	 6.886164 	 -2.789348 
H 	 2.733530 	 -6.870272 	 -1.766750 
H 	 6.428928 	 -6.104499 	 -4.382352 
H 	 5.448640 	 -5.235359 	 -5.187700 
H 	 3.010629 	 -2.725912 	 -1.469680 
H 	 2.252530 	 -4.081260 	 -0.977190 
H 	 -1.964199 	 -4.116991 	 6.148248 
H 	 -1.493546 	 -2.681075 	 5.482402 
H 	 -0.122087 	 -5.627757 	 -6.127901 
H 	 0.414246 	 -4.940499 	 -4.835673 
H 	 -0.786156 	 1.929686 	 -6.353917 
H 	 0.175191 	 1.261567 	 -7.291983 
H 	 -1.144869 	 6.153410 	 -3.220585 
H 	 -1.746018 	 6.512198 	 -4.608669 
H 	 0.238372 	 -0.171293 	 -3.678996 
H 	 0.802097 	 -0.067297 	 -5.126568 
H 	 -2.191061 	 -4.534768 	 -0.669731 
H 	 -0.721731 	 -4.731777 	 -0.317686 
H 	 2.899888 	 -0.858233 	 0.401757 
H 	 -1.114145 	 -1.354502 	 3.634722 
H 	 -4.070165 	 6.236131 	 -4.518674 
H 	 -4.902968 	 4.963569 	 -4.154529 
H 	 6.659743 	 6.137442 	 -2.985344 
H 	 5.255987 	 6.740140 	 -3.442166 
H 	 4.432768 	 -1.181419 	 -6.942153 
H 	 4.513818 	 -1.530786 	 6.452051 
H 	 0.889683 	 4.799985 	 2.025985 
H 	 1.091886 	 5.464829 	 0.814593 
H 	 -0.864500 	 -0.230453 	 4.659562 
O 	 -5.841179 	 4.882508 	 0.496234 
O 	 6.091875 	 1.216030 	 5.562453 
O 	 -4.026715 	 4.101589 	 6.978460 
O 	 6.882717 	 4.852590 	 -1.596878 
O 	 -4.974075 	 3.202244 	 -4.447002 
O 	 -6.876019 	 2.548302 	 -6.508796 
O 	 -2.665506 	 0.669258 	 -0.948408 
O 	 -4.869198 	 -3.872578 	 -6.533403 
O 	 -2.689296 	 2.115323 	 3.669080 
O 	 -3.647365 	 -6.107577 	 -5.710707 
O 	 4.574622 	 5.418760 	 0.010015 
O 	 -2.200124 	 -2.999177 	 -6.006532 
O 	 3.570292 	 -5.711147 	 -5.899592 
O 	 -6.746082 	 -3.032072 	 -4.580678 
O 	 0.989813 	 5.211416 	 3.827221 
O 	 -6.936822 	 5.325548 	 -6.352546 
O 	 4.015253 	 2.018596 	 -7.065749 
O 	 -4.220863 	 -0.607614 	 4.389983 
O 	 -1.542961 	 -1.557085 	 1.975001 
O 	 2.071737 	 -2.388467 	 3.102340 
O 	 -1.134335 	 6.872576 	 2.348587 
O 	 2.957039 	 -5.118502 	 3.323049 
O 	 -6.402489 	 1.944277 	 0.249043 
O 	 -4.135156 	 5.932142 	 -1.282780 
O 	 3.094210 	 0.654071 	 -3.203878 
O 	 1.757823 	 5.559674 	 -6.962041 
O 	 -0.772190 	 -6.677464 	 7.282106 
O 	 1.645128 	 -7.599629 	 1.379549 
O 	 -5.949526 	 -6.388594 	 5.008736 
O 	 -6.792489 	 -0.959718 	 2.526905 
O 	 5.190803 	 4.456009 	 6.784512 
O 	 -6.485605 	 -0.494203 	 -5.254863 
O 	 6.871043 	 3.565136 	 2.714834 
O 	 -5.663963 	 -3.324617 	 5.450006 
O 	 -5.137767 	 1.219155 	 -2.420689 
O 	 5.546819 	 1.677091 	 -0.181028 
O 	 -4.381827 	 0.409503 	 1.348809 
O 	 2.283580 	 1.906727 	 3.282783 
O 	 1.809734 	 -1.255838 	 -5.937935 
O 	 5.759746 	 -4.302445 	 6.373065 
O 	 1.129963 	 -7.147112 	 5.278979 
O 	 5.240307 	 -2.050610 	 -4.455475 
O 	 -3.594080 	 -5.764831 	 -2.911171 
O 	 -7.223715 	 4.925533 	 5.780450 
O 	 1.157089 	 -3.396177 	 6.897560 
O 	 3.216969 	 3.136181 	 0.870340 
O 	 -4.065211 	 6.770576 	 6.200021 
O 	 -3.001658 	 -5.292713 	 6.344597 
O 	 -0.264284 	 -0.248388 	 0.087728 
O 	 -3.267347 	 -2.846024 	 -0.051443 
O 	 -2.433383 	 3.742091 	 -1.842447 
O 	 3.737862 	 -6.066128 	 5.669999 
O 	 5.542215 	 -0.776538 	 1.362137 
O 	 3.265551 	 -5.166704 	 0.175314 
O 	 1.832182 	 0.899839 	 6.257976 
O 	 5.686062 	 6.609571 	 -6.471759 
O 	 -5.420250 	 2.688363 	 3.822990 
O 	 3.896521 	 6.622552 	 2.905143 
O 	 3.854781 	 4.238480 	 4.270533 
O 	 2.937465 	 -1.550206 	 5.620861 
O 	 0.515860 	 -5.934564 	 -3.149063 
O 	 2.961456 	 -3.634110 	 -4.277727 
O 	 6.941698 	 6.947796 	 3.879753 
O 	 -0.677819 	 -5.291574 	 3.602812 
O 	 -2.196089 	 5.431336 	 4.508629 
O 	 0.201827 	 -1.662826 	 -2.786316 
O 	 0.299089 	 5.607861 	 -2.626930 
O 	 -5.191282 	 -1.674997 	 -2.625137 
O 	 -4.943519 	 6.060695 	 2.967727 
O 	 -0.347391 	 1.962144 	 1.827329 
O 	 -1.512749 	 7.087788 	 -0.550183 
O 	 -7.193385 	 -6.059932 	 7.400469 
O 	 -2.523063 	 -1.033591 	 7.106343 
O 	 3.518570 	 3.962450 	 -4.893821 
O 	 -2.589095 	 0.856918 	 -4.079590 
O 	 -2.093693 	 3.420339 	 -5.059904 
O 	 4.048285 	 -1.293711 	 -1.372072 
O 	 5.045294 	 1.655721 	 2.950316 
O 	 -6.357300 	 -5.874878 	 -1.588160 
O 	 0.794482 	 3.187710 	 -3.444383 
O 	 -0.189319 	 -3.817232 	 1.296932 
O 	 -7.189156 	 -1.143379 	 5.769858 
O 	 -2.594465 	 -2.701679 	 -3.356416 
O 	 -1.283765 	 5.425404 	 -6.810069 
O 	 -4.174485 	 0.615480 	 -6.362169 
O 	 6.978953 	 -2.441579 	 -1.396366 
O 	 3.537538 	 6.895629 	 -4.465465 
O 	 5.537558 	 -3.527706 	 1.132797 
O 	 6.698969 	 -6.913414 	 0.807039 
O 	 6.824051 	 -3.788922 	 3.353704 
O 	 1.385772 	 1.834403 	 -0.969146 
O 	 5.563982 	 -5.111643 	 -1.240216 
O 	 6.081483 	 1.053028 	 -4.963618 
O 	 -1.588084 	 3.298839 	 5.964738 
O 	 -5.635243 	 -4.280635 	 0.678074 
O 	 6.355092 	 2.470276 	 -2.810385 
O 	 2.662706 	 7.035703 	 -1.796086 
O 	 6.283191 	 -5.196315 	 -4.691393 
O 	 2.292963 	 -3.400304 	 -1.666192 
O 	 -1.247542 	 -3.590622 	 5.650719 
O 	 0.115214 	 -4.760482 	 -5.739886 
O 	 -0.814657 	 1.370557 	 -7.146120 
O 	 -1.962077 	 6.588946 	 -3.662245 
O 	 0.225400 	 0.425916 	 -4.489974 
O 	 -1.434190 	 -5.137613 	 -0.878930 
O 	 2.365270 	 -0.312196 	 0.996903 
O 	 -4.970472 	 5.902122 	 -4.442901 
O 	 6.172423 	 6.918609 	 -3.279584 
O 	 5.036422 	 -1.520743 	 7.236380 
O 	 0.857836 	 4.559378 	 1.099339 
O 	 -0.673320 	 -1.142070 	 4.493081 
K 	 -5.707704 	 1.454040 	 6.121031 
