333
conformation = 73
H 	 -5.887203 	 3.899318 	 0.627393 
H 	 -5.533561 	 5.149034 	 1.421765 
H 	 5.447537 	 1.232295 	 6.334960 
H 	 6.455938 	 0.327390 	 5.453292 
H 	 -4.386305 	 3.981545 	 -7.037684 
H 	 -4.263868 	 5.071809 	 6.811901 
H 	 5.982054 	 4.857952 	 -1.246839 
H 	 -7.449658 	 4.875979 	 -0.816699 
H 	 -5.083842 	 2.513664 	 -3.736347 
H 	 -5.712001 	 3.040850 	 -5.059241 
H 	 -7.535055 	 2.134532 	 -5.942128 
H 	 -7.138652 	 3.512766 	 -6.433593 
H 	 -1.728845 	 0.438894 	 -0.712862 
H 	 -2.626012 	 1.651050 	 -0.989665 
H 	 -5.499503 	 -3.314785 	 -6.001092 
H 	 -3.971751 	 -3.475363 	 -6.507039 
H 	 -2.029706 	 1.921384 	 2.952997 
H 	 -2.205534 	 2.252867 	 4.482320 
H 	 -4.312445 	 -5.435270 	 -6.026820 
H 	 -2.906211 	 -6.140205 	 -6.344021 
H 	 4.225229 	 4.529781 	 0.217526 
H 	 3.897548 	 5.742384 	 -0.605604 
H 	 -1.447428 	 -3.624749 	 -6.087133 
H 	 -2.263815 	 -2.317681 	 -6.775948 
H 	 3.146454 	 -5.705671 	 -6.756402 
H 	 3.102431 	 -5.037224 	 -5.344134 
H 	 -7.143464 	 -3.932953 	 -4.748571 
H 	 -6.343674 	 -2.914160 	 -3.671029 
H 	 1.843255 	 4.947845 	 4.213664 
H 	 0.976905 	 6.160978 	 4.098191 
H 	 7.105959 	 5.677567 	 -6.093703 
H 	 -6.286724 	 5.492460 	 -5.635551 
H 	 4.466130 	 2.797172 	 7.423658 
H 	 3.214206 	 1.855526 	 7.242778 
H 	 -3.387059 	 -0.314974 	 4.795053 
H 	 -4.426589 	 -1.462982 	 4.815924 
H 	 -1.007802 	 -1.078251 	 1.244109 
H 	 -2.377605 	 -1.674139 	 1.540941 
H 	 1.235502 	 -1.991924 	 3.429317 
H 	 2.396442 	 -1.752905 	 2.473023 
H 	 -1.452802 	 6.936794 	 1.376915 
H 	 -1.518685 	 -7.200130 	 2.776434 
H 	 2.694111 	 -4.179730 	 3.375925 
H 	 2.236200 	 -5.520188 	 2.817026 
H 	 -5.973799 	 1.356806 	 0.825612 
H 	 -7.392651 	 1.919725 	 0.364458 
H 	 -4.601178 	 6.502377 	 -1.937048 
H 	 -4.820790 	 5.568317 	 -0.667890 
H 	 2.306782 	 0.193254 	 -3.505849 
H 	 2.696860 	 1.046590 	 -2.410330 
H 	 1.935584 	 4.814393 	 -6.340323 
H 	 0.812189 	 5.727904 	 -6.810271 
H 	 -0.171138 	 -7.045003 	 6.563465 
H 	 -1.011482 	 -7.562109 	 -7.193261 
H 	 2.369708 	 6.737968 	 1.796534 
H 	 0.869568 	 7.173899 	 1.981040 
H 	 -6.702167 	 -6.870783 	 4.608359 
H 	 -6.213712 	 -6.326274 	 5.933858 
H 	 -6.052827 	 -0.997421 	 1.926045 
H 	 -6.466660 	 -0.532157 	 3.349853 
H 	 5.203763 	 5.239263 	 7.345371 
H 	 6.126450 	 4.578426 	 6.396003 
H 	 -6.855350 	 -1.362956 	 -5.000232 
H 	 -7.278620 	 0.150446 	 -5.179149 
H 	 7.014417 	 3.854602 	 3.632377 
H 	 6.193829 	 2.853875 	 2.755370 
H 	 -5.916257 	 -4.164788 	 5.026794 
H 	 -5.295291 	 -3.497637 	 6.373499 
H 	 -4.326819 	 1.013656 	 -1.948073 
H 	 -5.697624 	 1.570222 	 -1.636583 
H 	 5.377480 	 0.781401 	 0.205468 
H 	 4.954975 	 2.263285 	 0.314911 
H 	 -3.849142 	 0.556006 	 2.202515 
H 	 -3.735486 	 0.214640 	 0.623632 
H 	 1.412357 	 2.285384 	 3.082934 
H 	 2.257963 	 1.166718 	 2.660412 
H 	 2.315069 	 -2.047378 	 -5.584992 
H 	 1.487282 	 -1.630223 	 -6.821252 
H 	 5.280061 	 -3.678176 	 6.985449 
H 	 5.141905 	 -5.054771 	 6.270106 
H 	 0.592676 	 -6.671973 	 4.633620 
H 	 1.948281 	 -6.609010 	 5.420319 
H 	 5.325387 	 -1.115485 	 -4.645532 
H 	 6.132774 	 -2.368086 	 -4.540486 
H 	 -3.644884 	 -6.180718 	 -3.835985 
H 	 -2.778874 	 -6.093194 	 -2.534298 
H 	 -6.918522 	 5.035839 	 6.695849 
H 	 -6.978266 	 5.717575 	 5.278522 
H 	 0.875402 	 -3.903415 	 -7.177821 
H 	 0.377443 	 -3.491760 	 6.357525 
H 	 3.374316 	 2.569387 	 1.637393 
H 	 2.482541 	 3.762996 	 1.135771 
H 	 -4.603938 	 7.085956 	 5.416183 
H 	 -3.161597 	 6.450063 	 5.830383 
H 	 -2.498991 	 -6.133256 	 6.593265 
H 	 -3.728760 	 -5.644632 	 5.788971 
H 	 1.388967 	 -0.326851 	 0.676256 
H 	 -0.062210 	 -1.006976 	 -0.478584 
H 	 -4.189464 	 -2.842077 	 0.390915 
H 	 -3.321488 	 -2.277728 	 -0.822518 
H 	 -1.543839 	 4.051191 	 -1.575313 
H 	 -3.025854 	 4.518953 	 -1.596017 
H 	 4.321450 	 -6.865528 	 5.872843 
H 	 3.530610 	 -5.926309 	 4.702678 
H 	 5.508675 	 -1.786273 	 1.246205 
H 	 6.545398 	 -0.660462 	 1.367020 
H 	 3.873595 	 -4.711757 	 0.864947 
H 	 2.987513 	 -6.054916 	 0.581997 
H 	 2.259096 	 0.010507 	 6.175868 
H 	 1.717002 	 1.197542 	 5.271572 
H 	 5.939159 	 -7.429743 	 -6.780017 
H 	 5.061880 	 6.803249 	 -5.662922 
H 	 -5.975925 	 2.830805 	 3.090974 
H 	 -4.493568 	 2.845882 	 3.536488 
H 	 3.844437 	 5.778596 	 3.459197 
H 	 4.352441 	 6.250502 	 2.097047 
H 	 4.431141 	 3.650949 	 3.758254 
H 	 4.316955 	 4.377097 	 5.172090 
H 	 2.883687 	 -1.817629 	 4.675056 
H 	 2.413103 	 -2.307172 	 6.065114 
H 	 0.106744 	 -5.305328 	 -2.547092 
H 	 -0.074135 	 -6.678852 	 -3.393287 
H 	 3.865771 	 -3.327751 	 -4.192543 
H 	 2.680062 	 -3.718820 	 -3.296374 
H 	 7.046831 	 -7.602840 	 2.984687 
H 	 6.006072 	 6.943347 	 4.140897 
H 	 -0.760529 	 -4.591553 	 4.327907 
H 	 -0.511929 	 -4.727084 	 2.810483 
H 	 -1.740147 	 5.955515 	 3.820467 
H 	 -1.673720 	 4.572271 	 4.476366 
H 	 -0.686574 	 -2.101963 	 -2.857407 
H 	 0.754360 	 -2.248725 	 -2.215134 
H 	 0.823650 	 6.126803 	 -1.983258 
H 	 0.772763 	 4.820272 	 -2.936153 
H 	 -4.363828 	 -2.004574 	 -3.091888 
H 	 -5.415391 	 -0.756896 	 -2.921827 
H 	 -5.521865 	 6.521352 	 3.628204 
H 	 -4.093925 	 5.872354 	 3.417479 
H 	 -0.158888 	 1.224863 	 1.180878 
H 	 -0.210548 	 2.852204 	 1.422305 
H 	 -2.402014 	 6.766517 	 -0.832148 
H 	 -1.512047 	 -6.831325 	 -0.498232 
H 	 -7.649277 	 -5.232771 	 7.181536 
H 	 -6.813400 	 -5.776417 	 -6.612144 
H 	 -1.791735 	 -0.376975 	 7.182169 
H 	 -3.225925 	 -0.493932 	 -7.254751 
H 	 3.594889 	 3.293807 	 -5.670232 
H 	 2.904151 	 3.502452 	 -4.278481 
H 	 -1.726229 	 0.737580 	 -4.557730 
H 	 -2.318215 	 0.763555 	 -3.124921 
H 	 -1.762382 	 3.933817 	 -4.304116 
H 	 -3.020150 	 3.285167 	 -4.767885 
H 	 4.959162 	 -1.538775 	 -1.410808 
H 	 3.929808 	 -0.556903 	 -2.035602 
H 	 5.462530 	 0.827045 	 2.641443 
H 	 5.177169 	 1.599222 	 3.899559 
H 	 -5.402742 	 -5.971255 	 -1.864745 
H 	 -6.698041 	 -6.750323 	 -1.203546 
H 	 1.021830 	 2.488302 	 -2.765489 
H 	 0.463556 	 2.602810 	 -4.173886 
H 	 -0.693785 	 -2.975747 	 1.464573 
H 	 0.730029 	 -3.536946 	 1.432573 
H 	 -6.573045 	 -1.919668 	 5.671843 
H 	 6.937874 	 -1.450377 	 6.265602 
H 	 -2.421348 	 -2.579698 	 -4.332623 
H 	 -2.509897 	 -3.673338 	 -3.298600 
H 	 -1.296594 	 5.229196 	 7.100993 
H 	 -1.772677 	 4.629614 	 -6.445750 
H 	 -4.696134 	 -0.035718 	 -5.812337 
H 	 -3.710518 	 1.109066 	 -5.634836 
H 	 -7.076114 	 -2.314525 	 -1.960478 
H 	 6.606107 	 -3.278694 	 -1.759885 
H 	 3.390582 	 -7.192846 	 -5.013963 
H 	 3.170837 	 6.083741 	 -4.876507 
H 	 6.130504 	 -3.679829 	 1.921123 
H 	 6.220642 	 -3.760912 	 0.453796 
H 	 6.428471 	 -6.013559 	 0.516216 
H 	 6.523164 	 -7.541006 	 0.059118 
H 	 7.134830 	 -2.849442 	 3.382513 
H 	 6.520356 	 -3.871740 	 4.245388 
H 	 1.875934 	 2.018991 	 -0.109302 
H 	 0.701042 	 1.143965 	 -0.745764 
H 	 4.652219 	 -5.033981 	 -0.857764 
H 	 5.615192 	 -5.968902 	 -1.730295 
H 	 5.228394 	 1.175964 	 -5.419070 
H 	 6.093939 	 1.674333 	 -4.206958 
H 	 -1.127487 	 2.599780 	 6.482333 
H 	 -2.611452 	 3.320376 	 6.258467 
H 	 -5.904354 	 -4.723921 	 1.507624 
H 	 -5.802138 	 -4.936026 	 -0.020123 
H 	 6.019855 	 1.940085 	 -2.026607 
H 	 6.766402 	 3.206581 	 -2.331369 
H 	 2.663092 	 6.877260 	 -2.765148 
H 	 2.742171 	 -6.864413 	 -1.745721 
H 	 6.421965 	 -6.098429 	 -4.380371 
H 	 5.434590 	 -5.222524 	 -5.193924 
H 	 2.999002 	 -2.726554 	 -1.462874 
H 	 2.263571 	 -4.079937 	 -0.985378 
H 	 -1.967888 	 -4.088257 	 6.157961 
H 	 -1.497934 	 -2.708595 	 5.464980 
H 	 -0.133983 	 -5.606432 	 -6.132762 
H 	 0.395910 	 -4.941303 	 -4.813601 
H 	 -0.777135 	 1.924938 	 -6.359958 
H 	 0.145910 	 1.260093 	 -7.310425 
H 	 -1.120885 	 6.140403 	 -3.229334 
H 	 -1.735183 	 6.526829 	 -4.601456 
H 	 0.234387 	 -0.168511 	 -3.703581 
H 	 0.801144 	 -0.067630 	 -5.134869 
H 	 -2.179566 	 -4.550309 	 -0.665785 
H 	 -0.752248 	 -4.747313 	 -0.305116 
H 	 2.896014 	 -0.837470 	 0.375830 
H 	 -1.103634 	 -1.342019 	 3.620910 
H 	 -4.069198 	 6.253862 	 -4.514558 
H 	 -4.882188 	 4.948867 	 -4.185124 
H 	 6.640818 	 6.116416 	 -2.989106 
H 	 5.239217 	 6.741972 	 -3.472288 
H 	 4.419403 	 -1.202932 	 -6.962992 
H 	 4.505650 	 -1.514487 	 6.428986 
H 	 0.896401 	 4.822351 	 2.028347 
H 	 1.086231 	 5.482865 	 0.809192 
H 	 -0.851367 	 -0.232822 	 4.659412 
O 	 -5.840104 	 4.884482 	 0.499150 
O 	 6.089290 	 1.216232 	 5.554497 
O 	 -4.026909 	 4.099469 	 6.988467 
O 	 6.889682 	 4.855523 	 -1.593721 
O 	 -4.973693 	 3.202352 	 -4.448832 
O 	 -6.875361 	 2.543438 	 -6.510932 
O 	 -2.662704 	 0.669781 	 -0.950506 
O 	 -4.868336 	 -3.872312 	 -6.533275 
O 	 -2.692015 	 2.121136 	 3.670047 
O 	 -3.647155 	 -6.105898 	 -5.710782 
O 	 4.575888 	 5.424340 	 0.009870 
O 	 -2.199504 	 -3.000602 	 -6.000593 
O 	 3.566216 	 -5.714873 	 -5.897958 
O 	 -6.747394 	 -3.035160 	 -4.577062 
O 	 0.994431 	 5.209553 	 3.838022 
O 	 -6.939717 	 5.323493 	 -6.353609 
O 	 4.011493 	 2.022005 	 -7.068461 
O 	 -4.223033 	 -0.609488 	 4.393758 
O 	 -1.542519 	 -1.561100 	 1.970985 
O 	 2.065498 	 -2.391470 	 3.099915 
O 	 -1.130515 	 6.875614 	 2.343417 
O 	 2.955147 	 -5.118343 	 3.315391 
O 	 -6.406748 	 1.938536 	 0.252812 
O 	 -4.135630 	 5.934500 	 -1.287149 
O 	 3.089172 	 0.657322 	 -3.197558 
O 	 1.762279 	 5.563779 	 -6.963841 
O 	 -0.774282 	 -6.673006 	 7.280751 
O 	 1.649225 	 -7.605349 	 1.377621 
O 	 -5.946176 	 -6.385992 	 5.011588 
O 	 -6.794975 	 -0.959187 	 2.532782 
O 	 5.188567 	 4.461564 	 6.791802 
O 	 -6.484041 	 -0.501039 	 -5.255881 
O 	 6.875380 	 3.565716 	 2.712047 
O 	 -5.661899 	 -3.325341 	 5.449926 
O 	 -5.145065 	 1.213700 	 -2.422132 
O 	 5.543961 	 1.679886 	 -0.185760 
O 	 -4.383463 	 0.413842 	 1.348811 
O 	 2.284616 	 1.903607 	 3.287696 
O 	 1.807407 	 -1.255058 	 -5.937446 
O 	 5.761568 	 -4.295660 	 6.372017 
O 	 1.124150 	 -7.145651 	 5.273514 
O 	 5.235229 	 -2.045379 	 -4.454750 
O 	 -3.589605 	 -5.757240 	 -2.915056 
O 	 -7.228110 	 4.922781 	 5.772537 
O 	 1.165730 	 -3.399724 	 6.901898 
O 	 3.218705 	 3.135344 	 0.871044 
O 	 -4.070067 	 6.773672 	 6.190966 
O 	 -2.998532 	 -5.297898 	 6.341191 
O 	 -0.263349 	 -0.249104 	 0.087353 
O 	 -3.271474 	 -2.850824 	 -0.054925 
O 	 -2.433010 	 3.737882 	 -1.837837 
O 	 3.732442 	 -6.064206 	 5.670697 
O 	 5.552250 	 -0.781396 	 1.362702 
O 	 3.264010 	 -5.164975 	 0.169458 
O 	 1.829031 	 0.899096 	 6.252160 
O 	 5.688681 	 6.608666 	 -6.470142 
O 	 -5.414332 	 2.680989 	 3.826296 
O 	 3.894427 	 6.622456 	 2.904274 
O 	 3.855849 	 4.239001 	 4.265378 
O 	 2.933340 	 -1.549607 	 5.619733 
O 	 0.516139 	 -5.940319 	 -3.156063 
O 	 2.962202 	 -3.638128 	 -4.272105 
O 	 6.949250 	 6.945807 	 3.880227 
O 	 -0.678193 	 -5.295130 	 3.599129 
O 	 -2.195947 	 5.432974 	 4.500486 
O 	 0.202160 	 -1.659955 	 -2.793016 
O 	 0.296235 	 5.610888 	 -2.628009 
O 	 -5.191354 	 -1.683347 	 -2.630156 
O 	 -4.947593 	 6.060944 	 2.964197 
O 	 -0.357046 	 1.959557 	 1.827168 
O 	 -1.514350 	 7.090922 	 -0.554005 
O 	 -7.189760 	 -6.059484 	 7.398948 
O 	 -2.532471 	 -1.033044 	 7.103891 
O 	 3.529062 	 3.960122 	 -4.896110 
O 	 -2.591531 	 0.859466 	 -4.084749 
O 	 -2.093979 	 3.418153 	 -5.061275 
O 	 4.049397 	 -1.293162 	 -1.366071 
O 	 5.049915 	 1.658415 	 2.952578 
O 	 -6.353960 	 -5.878100 	 -1.590314 
O 	 0.796086 	 3.187035 	 -3.443637 
O 	 -0.199759 	 -3.815804 	 1.294417 
O 	 -7.189887 	 -1.137266 	 5.777638 
O 	 -2.590509 	 -2.701046 	 -3.354533 
O 	 -1.287336 	 5.425441 	 -6.806426 
O 	 -4.178664 	 0.611585 	 -6.363034 
O 	 6.977269 	 -2.442842 	 -1.398601 
O 	 3.535821 	 6.889085 	 -4.473249 
O 	 5.534453 	 -3.526092 	 1.125662 
O 	 6.701473 	 -6.919511 	 0.807350 
O 	 6.827207 	 -3.788725 	 3.348465 
O 	 1.384170 	 1.839447 	 -0.962024 
O 	 5.562452 	 -5.116669 	 -1.237577 
O 	 6.078800 	 1.054494 	 -4.963078 
O 	 -1.595805 	 3.303388 	 5.963938 
O 	 -5.632283 	 -4.280345 	 0.673254 
O 	 6.357682 	 2.467727 	 -2.814526 
O 	 2.667813 	 7.036989 	 -1.792649 
O 	 6.279310 	 -5.197273 	 -4.696262 
O 	 2.294422 	 -3.396000 	 -1.665919 
O 	 -1.250621 	 -3.591921 	 5.651763 
O 	 0.110827 	 -4.762608 	 -5.739228 
O 	 -0.814496 	 1.368553 	 -7.145294 
O 	 -1.962929 	 6.586630 	 -3.668589 
O 	 0.226450 	 0.430224 	 -4.494258 
O 	 -1.440690 	 -5.136596 	 -0.875826 
O 	 2.362106 	 -0.311914 	 1.002041 
O 	 -4.974935 	 5.900238 	 -4.444464 
O 	 6.175815 	 6.919946 	 -3.285803 
O 	 5.036757 	 -1.520997 	 7.237050 
O 	 0.854439 	 4.562030 	 1.097575 
O 	 -0.670029 	 -1.146883 	 4.490674 
K 	 -5.706553 	 1.454965 	 6.117375 
