333
conformation = 25
H 	 -5.847372 	 3.949682 	 0.525708 
H 	 -5.924994 	 5.469977 	 1.246704 
H 	 5.486418 	 0.987154 	 6.077473 
H 	 6.622422 	 0.458893 	 5.286821 
H 	 -3.949750 	 3.990113 	 -6.794240 
H 	 -4.385865 	 5.005621 	 6.956746 
H 	 6.404572 	 5.107015 	 -0.864124 
H 	 -6.996487 	 5.019146 	 -1.048413 
H 	 -4.912492 	 2.650622 	 -3.817177 
H 	 -5.481394 	 2.755095 	 -5.282117 
H 	 -7.587438 	 2.074278 	 -6.234057 
H 	 -7.033016 	 3.522165 	 -6.504586 
H 	 -1.820178 	 0.345908 	 -0.642459 
H 	 -2.285028 	 1.781105 	 -1.165046 
H 	 -5.428919 	 -3.736424 	 -5.894258 
H 	 -4.032376 	 -3.290947 	 -6.388467 
H 	 -1.996084 	 2.376180 	 2.843092 
H 	 -2.476271 	 2.972501 	 4.131437 
H 	 -3.915138 	 -5.447823 	 -6.389553 
H 	 -2.708382 	 -6.259741 	 -6.082393 
H 	 4.120196 	 4.915361 	 0.238672 
H 	 4.002068 	 6.223176 	 -0.632942 
H 	 -1.353394 	 -3.476343 	 -6.046328 
H 	 -2.138594 	 -2.339399 	 -6.797672 
H 	 3.165890 	 -5.541829 	 -6.836129 
H 	 3.245617 	 -4.943147 	 -5.361474 
H 	 -7.389291 	 -3.858634 	 -4.193137 
H 	 -6.207819 	 -2.832579 	 -3.850092 
H 	 2.085052 	 4.857605 	 3.974625 
H 	 1.111070 	 5.964512 	 4.474093 
H 	 7.250471 	 5.819240 	 -6.478154 
H 	 -6.185445 	 5.676521 	 -5.951558 
H 	 4.226008 	 3.046882 	 7.337886 
H 	 3.203918 	 1.729941 	 7.158280 
H 	 -3.565494 	 -0.509456 	 4.961608 
H 	 -4.544325 	 -1.555614 	 4.437061 
H 	 -1.003388 	 -1.102123 	 0.881583 
H 	 -2.307103 	 -1.875031 	 1.438398 
H 	 0.966894 	 -2.133896 	 3.198226 
H 	 2.055145 	 -1.744990 	 2.173839 
H 	 -1.315244 	 7.048321 	 1.128100 
H 	 -0.976880 	 -6.949563 	 2.445840 
H 	 2.338100 	 -4.313139 	 2.901446 
H 	 2.476078 	 -5.837662 	 2.773654 
H 	 -6.147278 	 1.414106 	 0.796563 
H 	 -7.472611 	 1.903293 	 0.115499 
H 	 -4.622393 	 5.751124 	 -2.314078 
H 	 -4.632950 	 5.685091 	 -0.776512 
H 	 2.600952 	 0.781794 	 -4.012928 
H 	 2.332037 	 1.121913 	 -2.499693 
H 	 1.849119 	 4.742095 	 -6.714875 
H 	 1.021935 	 5.732201 	 7.392311 
H 	 -0.168121 	 -6.558138 	 6.401401 
H 	 -0.953370 	 -7.615897 	 7.376744 
H 	 2.198179 	 6.947614 	 2.094407 
H 	 0.834553 	 -7.462091 	 1.487193 
H 	 -6.552369 	 -6.355479 	 4.277282 
H 	 -6.366653 	 -6.205203 	 5.772309 
H 	 -6.025616 	 -0.950722 	 2.022975 
H 	 -6.597974 	 -0.268015 	 3.252062 
H 	 5.079987 	 5.295175 	 7.347106 
H 	 5.962315 	 4.525064 	 6.270441 
H 	 -6.631934 	 -1.453058 	 -5.400142 
H 	 -7.267388 	 0.013600 	 -5.231142 
H 	 6.998619 	 3.791500 	 3.548640 
H 	 6.536092 	 2.906806 	 2.406518 
H 	 -5.962068 	 -4.077653 	 5.040267 
H 	 -5.326038 	 -3.610874 	 6.341614 
H 	 -4.478094 	 0.903899 	 -2.115259 
H 	 -5.979243 	 1.301590 	 -1.754246 
H 	 5.357614 	 0.809140 	 -0.040721 
H 	 4.671090 	 2.194384 	 -0.201397 
H 	 -3.855564 	 0.227232 	 2.051915 
H 	 -3.688088 	 0.847829 	 0.632014 
H 	 1.375265 	 1.988157 	 2.929490 
H 	 2.606896 	 1.040985 	 2.927835 
H 	 1.716513 	 -1.733478 	 -5.234940 
H 	 1.603095 	 -1.815264 	 -6.831658 
H 	 5.822238 	 -3.077014 	 6.490914 
H 	 4.925878 	 -4.312819 	 6.178636 
H 	 0.662180 	 -6.234663 	 4.506804 
H 	 1.887735 	 -6.911842 	 5.247970 
H 	 5.339420 	 -0.915712 	 -4.500445 
H 	 5.959893 	 -2.318255 	 -4.256762 
H 	 -3.443392 	 -5.501619 	 -4.064127 
H 	 -3.178763 	 -6.329357 	 -2.786194 
H 	 -6.828224 	 5.269951 	 6.241969 
H 	 -7.398649 	 5.590953 	 4.883744 
H 	 1.323451 	 -3.801519 	 -7.071194 
H 	 0.539471 	 -3.435724 	 6.526924 
H 	 3.390881 	 3.029775 	 1.817703 
H 	 2.400319 	 3.667251 	 0.935631 
H 	 -4.838141 	 -7.496925 	 5.592457 
H 	 -3.541464 	 6.590194 	 5.034634 
H 	 -2.216038 	 -5.975611 	 6.259631 
H 	 -3.771336 	 -5.808718 	 5.868196 
H 	 1.443078 	 -0.343856 	 0.532916 
H 	 -0.108122 	 -0.627030 	 -0.930125 
H 	 -4.089461 	 -3.572635 	 -0.160476 
H 	 -3.696200 	 -2.256733 	 -0.917643 
H 	 -1.654901 	 4.307863 	 -1.951491 
H 	 -3.179654 	 4.256496 	 -1.852928 
H 	 4.028699 	 -6.872528 	 5.302161 
H 	 3.431241 	 -5.698271 	 4.706940 
H 	 5.258071 	 -1.512705 	 1.060773 
H 	 6.503395 	 -1.022423 	 1.934077 
H 	 3.902811 	 -4.647735 	 0.607500 
H 	 2.713826 	 -5.679156 	 0.659430 
H 	 2.001557 	 0.072409 	 5.702455 
H 	 2.018861 	 1.534583 	 5.148613 
H 	 6.071809 	 -7.361928 	 -6.466073 
H 	 4.783261 	 6.787678 	 -5.907368 
H 	 -5.667925 	 3.159215 	 3.054451 
H 	 -4.379495 	 2.359408 	 3.300332 
H 	 3.963981 	 5.654745 	 2.882064 
H 	 4.492947 	 6.823687 	 1.916145 
H 	 3.454428 	 3.434417 	 3.999580 
H 	 4.206792 	 4.310264 	 5.089427 
H 	 2.681682 	 -1.765419 	 4.514309 
H 	 2.329110 	 -2.272124 	 5.975959 
H 	 0.163193 	 -5.640024 	 -2.584376 
H 	 0.179078 	 -6.930408 	 -3.333332 
H 	 3.680638 	 -3.037435 	 -4.411473 
H 	 2.617444 	 -3.723596 	 -3.411701 
H 	 7.172284 	 6.827090 	 2.770870 
H 	 6.120048 	 6.910881 	 3.738312 
H 	 -1.119866 	 -4.765498 	 4.075929 
H 	 -0.556966 	 -4.823090 	 2.617872 
H 	 -1.659177 	 5.721546 	 3.341277 
H 	 -1.657140 	 5.118390 	 4.812831 
H 	 -0.710563 	 -2.012911 	 -3.076595 
H 	 0.911666 	 -2.208792 	 -2.950042 
H 	 1.085543 	 6.077811 	 -2.304283 
H 	 0.605547 	 4.935078 	 -3.138256 
H 	 -4.156067 	 -1.952919 	 -2.990696 
H 	 -5.245040 	 -0.936236 	 -3.086770 
H 	 -5.338010 	 6.685045 	 3.496154 
H 	 -4.375623 	 5.524980 	 3.123646 
H 	 -0.747399 	 1.258415 	 1.111153 
H 	 -0.350825 	 2.806168 	 1.216762 
H 	 -2.370139 	 6.781782 	 -0.967255 
H 	 -1.724103 	 -6.770642 	 -0.953236 
H 	 7.151988 	 -5.330637 	 7.219985 
H 	 -6.234597 	 -5.683282 	 -7.119982 
H 	 -1.952014 	 -0.332010 	 6.947761 
H 	 -3.409659 	 -0.421219 	 -7.488550 
H 	 3.759757 	 3.027896 	 -5.541267 
H 	 3.405249 	 3.641048 	 -4.147449 
H 	 -1.573665 	 0.802012 	 -4.289743 
H 	 -2.821012 	 1.007841 	 -3.362950 
H 	 -1.515657 	 3.240523 	 -4.456109 
H 	 -2.919402 	 3.011726 	 -5.110582 
H 	 4.948697 	 -1.453395 	 -1.470929 
H 	 3.826919 	 -0.599963 	 -2.109814 
H 	 4.845270 	 0.858971 	 2.416635 
H 	 5.477866 	 1.330635 	 3.724403 
H 	 -5.511298 	 -5.890992 	 -2.473549 
H 	 -6.043183 	 -6.597576 	 -1.088071 
H 	 0.815045 	 2.937578 	 -2.611034 
H 	 0.894789 	 2.345552 	 -4.082775 
H 	 -0.873954 	 -2.887247 	 1.311385 
H 	 0.538456 	 -3.582865 	 1.300579 
H 	 -6.753434 	 -1.729562 	 5.664155 
H 	 7.194681 	 -1.152551 	 6.725668 
H 	 -2.421715 	 -2.690103 	 -4.377237 
H 	 -2.731349 	 -3.457773 	 -3.073482 
H 	 -1.363598 	 4.715357 	 7.341511 
H 	 -1.410813 	 5.085427 	 -6.061756 
H 	 -5.120229 	 0.228066 	 -6.173470 
H 	 -3.744333 	 0.616440 	 -5.583981 
H 	 -7.061909 	 -2.153615 	 -1.566633 
H 	 6.869622 	 -3.425407 	 -1.775460 
H 	 3.194666 	 -7.310204 	 -5.204885 
H 	 2.937046 	 6.082798 	 -5.263159 
H 	 5.846953 	 -3.660060 	 1.677591 
H 	 6.123995 	 -3.269267 	 0.095573 
H 	 6.293330 	 -6.580610 	 0.051509 
H 	 6.583349 	 6.912343 	 0.566577 
H 	 -7.443505 	 -2.847138 	 3.092718 
H 	 6.418483 	 -3.629325 	 3.984293 
H 	 2.201675 	 2.282807 	 -0.535050 
H 	 0.903518 	 1.342169 	 -0.354528 
H 	 4.646074 	 -5.552937 	 -1.278269 
H 	 5.844019 	 -5.695739 	 -2.211474 
H 	 5.291555 	 1.429050 	 -5.765369 
H 	 6.040939 	 1.710197 	 -4.307812 
H 	 -1.450790 	 2.688223 	 6.430754 
H 	 -2.694897 	 3.688466 	 6.400455 
H 	 -5.727560 	 -4.963941 	 1.029929 
H 	 -5.972149 	 -4.497846 	 -0.372546 
H 	 6.061137 	 2.098115 	 -2.099309 
H 	 6.524341 	 3.407863 	 -2.861453 
H 	 3.318909 	 -7.626213 	 -2.602794 
H 	 2.515202 	 -6.986665 	 -1.344474 
H 	 6.325108 	 -5.971046 	 -4.400950 
H 	 5.296254 	 -5.230915 	 -5.284842 
H 	 2.954721 	 -2.483623 	 -1.570113 
H 	 2.512695 	 -3.847695 	 -1.074916 
H 	 -2.159810 	 -3.901679 	 5.636719 
H 	 -1.339862 	 -2.647974 	 5.224417 
H 	 -0.252942 	 -5.418181 	 -6.494016 
H 	 0.225271 	 -5.185325 	 -5.041570 
H 	 -0.768618 	 1.487819 	 -6.356843 
H 	 0.117249 	 1.342159 	 7.166312 
H 	 -1.209000 	 6.332815 	 -3.419562 
H 	 -1.568002 	 6.545692 	 -4.879913 
H 	 0.395565 	 -0.116197 	 -4.028169 
H 	 0.573068 	 0.106060 	 -5.522540 
H 	 -2.290479 	 -4.407460 	 -1.097396 
H 	 -1.103792 	 -4.496500 	 -0.163324 
H 	 2.963565 	 -0.091399 	 0.422670 
H 	 -1.078684 	 -0.940361 	 3.457062 
H 	 -4.202511 	 6.425948 	 -4.725902 
H 	 -4.774328 	 5.002265 	 -4.532162 
H 	 6.590047 	 6.421462 	 -2.962924 
H 	 5.443055 	 6.529284 	 -3.913898 
H 	 4.748503 	 -1.547706 	 -6.903586 
H 	 4.263507 	 -1.515936 	 6.589488 
H 	 0.766464 	 5.101839 	 1.850297 
H 	 0.636969 	 5.272673 	 0.272946 
H 	 -0.247488 	 -0.336096 	 4.590882 
O 	 -5.821129 	 4.915636 	 0.433314 
O 	 5.995638 	 1.219773 	 5.241874 
O 	 -4.075538 	 4.078688 	 7.157957 
O 	 7.078059 	 4.941428 	 -1.543657 
O 	 -4.910546 	 3.195795 	 -4.629021 
O 	 -6.850432 	 2.541402 	 -6.639509 
O 	 -2.518518 	 0.831727 	 -1.154748 
O 	 -4.836387 	 -3.734680 	 -6.689647 
O 	 -2.641891 	 2.220244 	 3.576729 
O 	 -3.603088 	 -6.141152 	 -5.740905 
O 	 4.628787 	 5.640987 	 -0.161497 
O 	 -2.182780 	 -2.955085 	 -6.025122 
O 	 3.454157 	 -5.729101 	 -5.952814 
O 	 -6.775847 	 -3.181487 	 -4.579957 
O 	 1.158490 	 5.134894 	 3.973587 
O 	 -6.895155 	 5.241310 	 -6.463056 
O 	 3.968012 	 2.163430 	 -7.276566 
O 	 -4.306735 	 -0.621698 	 4.347707 
O 	 -1.477404 	 -1.519663 	 1.699379 
O 	 1.880726 	 -2.363542 	 2.913254 
O 	 -1.007923 	 7.025812 	 2.081557 
O 	 2.972650 	 -5.065616 	 2.963750 
O 	 -6.496374 	 1.938930 	 0.114190 
O 	 -4.159051 	 6.079669 	 -1.527467 
O 	 2.957162 	 0.757250 	 -3.110323 
O 	 1.887681 	 5.689195 	 -7.062150 
O 	 -0.810141 	 -6.623411 	 7.184292 
O 	 1.780509 	 -7.630974 	 1.242456 
O 	 -5.833685 	 -6.234289 	 4.934907 
O 	 -6.811635 	 -0.959540 	 2.616180 
O 	 5.100226 	 4.555850 	 6.763649 
O 	 -6.399269 	 -0.507992 	 -5.416713 
O 	 7.095306 	 3.703137 	 2.577516 
O 	 -5.531304 	 -3.285503 	 5.412019 
O 	 -5.333054 	 1.160004 	 -2.535105 
O 	 5.521947 	 1.707935 	 -0.335999 
O 	 -4.385864 	 0.474839 	 1.238587 
O 	 2.227452 	 1.809756 	 3.355734 
O 	 1.904197 	 -1.228031 	 -6.094178 
O 	 5.866212 	 -4.058047 	 6.272034 
O 	 0.925215 	 -7.008203 	 5.002727 
O 	 5.159952 	 -1.841287 	 -4.583579 
O 	 -3.531368 	 -5.477667 	 -3.071147 
O 	 -7.285030 	 4.841032 	 5.503879 
O 	 1.435443 	 -3.446772 	 6.884852 
O 	 3.235801 	 3.146147 	 0.863688 
O 	 -4.076906 	 6.838913 	 5.884549 
O 	 -2.999074 	 -5.350125 	 6.173444 
O 	 -0.193919 	 -0.223712 	 -0.051157 
O 	 -3.348083 	 -2.844304 	 -0.226735 
O 	 -2.381079 	 3.663933 	 -1.847621 
O 	 3.688261 	 -5.996586 	 5.626331 
O 	 5.818107 	 -0.765000 	 1.274161 
O 	 3.209387 	 -5.108116 	 -0.004427 
O 	 1.748245 	 1.001511 	 5.999966 
O 	 5.619476 	 6.696258 	 -6.516629 
O 	 -5.260295 	 2.557108 	 3.686984 
O 	 3.980851 	 6.643493 	 2.747517 
O 	 3.931362 	 4.285063 	 4.112516 
O 	 2.835283 	 -1.553353 	 5.447122 
O 	 0.490588 	 -6.006515 	 -3.454288 
O 	 3.007334 	 -3.698844 	 -4.341479 
O 	 7.110009 	 7.071207 	 3.702607 
O 	 -0.662146 	 -5.367776 	 3.427590 
O 	 -2.198378 	 5.600643 	 4.145062 
O 	 0.174126 	 -1.538327 	 -2.989067 
O 	 0.265509 	 5.757011 	 -2.737705 
O 	 -5.140283 	 -1.909959 	 -2.909276 
O 	 -5.023013 	 6.134994 	 2.720925 
O 	 -0.568188 	 1.995971 	 1.772601 
O 	 -1.560573 	 7.220885 	 -0.656385 
O 	 -7.059355 	 -6.007393 	 7.295186 
O 	 -2.742893 	 -0.945999 	 6.932678 
O 	 3.731210 	 3.909643 	 -5.062975 
O 	 -2.567319 	 0.883607 	 -4.303947 
O 	 -2.082908 	 3.506817 	 -5.197982 
O 	 4.052021 	 -1.199301 	 -1.327992 
O 	 5.139264 	 1.671398 	 2.853347 
O 	 -6.201272 	 -5.861372 	 -1.765406 
O 	 0.901812 	 3.184902 	 -3.568431 
O 	 -0.405155 	 -3.779682 	 1.118106 
O 	 -7.253472 	 -0.896122 	 5.894607 
O 	 -2.408512 	 -2.611983 	 -3.420987 
O 	 -1.340987 	 5.533095 	 -6.947901 
O 	 -4.228166 	 0.595110 	 -6.452921 
O 	 6.887142 	 -2.460756 	 -1.584369 
O 	 3.466872 	 6.759736 	 -4.791693 
O 	 5.465915 	 -3.478671 	 0.797451 
O 	 6.854984 	 -7.054819 	 0.738995 
O 	 6.960968 	 -3.686829 	 3.202811 
O 	 1.347837 	 1.988525 	 -0.965321 
O 	 5.602820 	 -5.280757 	 -1.366191 
O 	 5.992781 	 1.098288 	 -5.168393 
O 	 -1.813802 	 3.458269 	 5.876376 
O 	 -5.565056 	 -4.189225 	 0.477087 
O 	 6.473434 	 2.436891 	 -2.944532 
O 	 2.842741 	 7.080845 	 -1.771548 
O 	 6.220528 	 -5.182773 	 -4.936079 
O 	 2.287467 	 -3.209320 	 -1.780375 
O 	 -1.217346 	 -3.513844 	 5.554417 
O 	 -0.016025 	 -4.712020 	 -5.860216 
O 	 -0.766421 	 1.385557 	 -7.318656 
O 	 -1.930345 	 6.627044 	 -4.007825 
O 	 0.282024 	 0.625376 	 -4.732877 
O 	 -1.582617 	 -4.995702 	 -0.882552 
O 	 2.272943 	 -0.324164 	 1.067748 
O 	 -5.051733 	 5.936950 	 -4.582641 
O 	 6.199805 	 7.066034 	 -3.589420 
O 	 5.064386 	 -1.485999 	 7.090969 
O 	 0.802251 	 4.656111 	 1.024593 
O 	 -0.526234 	 -1.195633 	 4.220912 
K 	 -5.655327 	 1.533366 	 5.942672 
