333
conformation = 69
H 	 -5.910025 	 3.901015 	 0.523872 
H 	 -5.564822 	 5.182288 	 1.368262 
H 	 5.449408 	 1.177323 	 6.258909 
H 	 6.481099 	 0.299606 	 5.399298 
H 	 -4.367643 	 3.951917 	 -7.044760 
H 	 -4.241368 	 5.060534 	 6.797210 
H 	 6.006527 	 4.871000 	 -1.254710 
H 	 -7.422091 	 4.819484 	 -0.831044 
H 	 -5.098531 	 2.538225 	 -3.754250 
H 	 -5.712774 	 3.023809 	 -5.136808 
H 	 -7.556313 	 2.159494 	 -6.000202 
H 	 -7.134850 	 3.496195 	 -6.451289 
H 	 -1.680993 	 0.437478 	 -0.761218 
H 	 -2.634597 	 1.662351 	 -1.065876 
H 	 -5.480678 	 -3.320950 	 -6.021130 
H 	 -3.940228 	 -3.487432 	 -6.512372 
H 	 -2.008324 	 1.935172 	 2.971961 
H 	 -2.165687 	 2.254364 	 4.469049 
H 	 -4.259522 	 -5.413748 	 -6.099357 
H 	 -2.890720 	 -6.162583 	 -6.332199 
H 	 4.195675 	 4.524624 	 0.157748 
H 	 3.903562 	 5.768273 	 -0.679502 
H 	 -1.432278 	 -3.607977 	 -6.165680 
H 	 -2.265377 	 -2.325761 	 -6.787340 
H 	 3.167199 	 -5.709876 	 -6.810276 
H 	 3.067933 	 -5.040362 	 -5.367917 
H 	 -7.161270 	 -3.953971 	 -4.754307 
H 	 -6.329242 	 -2.888256 	 -3.722413 
H 	 1.895401 	 4.933186 	 4.160560 
H 	 0.970448 	 6.147619 	 4.028583 
H 	 7.094228 	 5.653302 	 -6.081542 
H 	 -6.266451 	 5.495682 	 -5.688535 
H 	 4.517101 	 2.793491 	 7.377970 
H 	 3.162722 	 1.844513 	 7.223884 
H 	 -3.422416 	 -0.296977 	 4.751941 
H 	 -4.432920 	 -1.480862 	 4.721500 
H 	 -0.995968 	 -1.088906 	 1.212239 
H 	 -2.383017 	 -1.636530 	 1.484917 
H 	 1.216284 	 -1.973356 	 3.382975 
H 	 2.406321 	 -1.747006 	 2.417519 
H 	 -1.437105 	 6.935609 	 1.334387 
H 	 -1.529022 	 -7.256866 	 2.780715 
H 	 2.680556 	 -4.195437 	 3.279529 
H 	 2.258301 	 -5.523819 	 2.789034 
H 	 -5.959934 	 1.290885 	 0.777628 
H 	 -7.393405 	 1.940869 	 0.295796 
H 	 -4.619964 	 6.471269 	 -1.977244 
H 	 -4.842870 	 5.580671 	 -0.692930 
H 	 2.302763 	 0.184171 	 -3.598636 
H 	 2.658506 	 1.042623 	 -2.442661 
H 	 1.873164 	 4.780231 	 -6.374920 
H 	 0.806277 	 5.730673 	 -6.908633 
H 	 -0.164296 	 -7.021607 	 6.547215 
H 	 -0.999989 	 -7.534301 	 -7.270243 
H 	 2.341834 	 6.729641 	 1.765238 
H 	 0.890531 	 7.126746 	 1.944225 
H 	 -6.710070 	 -6.840482 	 4.528505 
H 	 -6.235951 	 -6.320664 	 5.929362 
H 	 -6.039405 	 -1.042020 	 1.886902 
H 	 -6.503405 	 -0.517178 	 3.300667 
H 	 5.170317 	 5.253313 	 7.326324 
H 	 6.118148 	 4.549910 	 6.363641 
H 	 -6.827580 	 -1.358748 	 -5.021586 
H 	 -7.232274 	 0.140602 	 -5.197354 
H 	 7.016545 	 3.788923 	 3.616041 
H 	 6.191831 	 2.867662 	 2.712557 
H 	 -5.948593 	 -4.167949 	 4.990955 
H 	 -5.294431 	 -3.533884 	 6.356439 
H 	 -4.307491 	 0.990057 	 -1.988199 
H 	 -5.672080 	 1.581192 	 -1.721171 
H 	 5.427545 	 0.752060 	 0.234882 
H 	 4.912664 	 2.274626 	 0.280245 
H 	 -3.826767 	 0.480349 	 2.115109 
H 	 -3.756737 	 0.234566 	 0.584030 
H 	 1.411014 	 2.279043 	 3.083177 
H 	 2.289904 	 1.140802 	 2.637498 
H 	 2.361837 	 -2.038414 	 -5.623229 
H 	 1.530855 	 -1.583325 	 -6.850331 
H 	 5.279509 	 -3.708450 	 6.960941 
H 	 5.168436 	 -5.036363 	 6.260571 
H 	 0.594315 	 -6.670503 	 4.544009 
H 	 1.945085 	 -6.618518 	 5.413213 
H 	 5.319131 	 -1.095338 	 -4.696077 
H 	 6.175758 	 -2.400416 	 -4.551555 
H 	 -3.691828 	 -6.180003 	 -3.876010 
H 	 -2.805441 	 -6.098335 	 -2.510102 
H 	 -6.907577 	 5.039237 	 6.628419 
H 	 -6.976513 	 5.724871 	 5.253640 
H 	 0.889108 	 -3.896291 	 -7.251061 
H 	 0.387420 	 -3.512779 	 6.280095 
H 	 3.369767 	 2.529080 	 1.632302 
H 	 2.480536 	 3.724505 	 1.163610 
H 	 -4.600676 	 7.077600 	 5.348176 
H 	 -3.177836 	 6.454408 	 5.818724 
H 	 -2.489417 	 -6.101133 	 6.573589 
H 	 -3.723376 	 -5.599779 	 5.763082 
H 	 1.385925 	 -0.349732 	 0.624794 
H 	 -0.073374 	 -0.979950 	 -0.573560 
H 	 -4.175463 	 -2.815190 	 0.334162 
H 	 -3.327288 	 -2.246987 	 -0.857465 
H 	 -1.548195 	 4.076095 	 -1.652544 
H 	 -3.038106 	 4.500628 	 -1.686593 
H 	 4.332295 	 -6.784837 	 5.820098 
H 	 3.587915 	 -5.940274 	 4.636765 
H 	 5.498537 	 -1.834356 	 1.199773 
H 	 6.515334 	 -0.646147 	 1.378136 
H 	 3.881432 	 -4.741118 	 0.779727 
H 	 3.009599 	 -6.007950 	 0.544916 
H 	 2.289537 	 0.056657 	 6.104890 
H 	 1.737968 	 1.177552 	 5.280808 
H 	 5.885801 	 -7.408014 	 -6.840549 
H 	 5.063431 	 6.772941 	 -5.735299 
H 	 -5.978171 	 2.880114 	 3.004927 
H 	 -4.483368 	 2.811696 	 3.461099 
H 	 3.898832 	 5.794228 	 3.401838 
H 	 4.343966 	 6.267821 	 2.044522 
H 	 4.407077 	 3.559915 	 3.750966 
H 	 4.303796 	 4.368640 	 5.101741 
H 	 2.855924 	 -1.856119 	 4.605417 
H 	 2.431567 	 -2.263132 	 6.037842 
H 	 0.108746 	 -5.310267 	 -2.574530 
H 	 -0.084850 	 -6.691878 	 -3.452801 
H 	 3.883671 	 -3.312005 	 -4.275310 
H 	 2.677465 	 -3.757878 	 -3.361264 
H 	 7.050857 	 -7.575180 	 2.950949 
H 	 6.007800 	 6.983279 	 4.099841 
H 	 -0.794051 	 -4.594359 	 4.294913 
H 	 -0.566410 	 -4.702607 	 2.753138 
H 	 -1.733614 	 5.953592 	 3.744299 
H 	 -1.692914 	 4.623118 	 4.509510 
H 	 -0.681637 	 -2.041682 	 -2.897983 
H 	 0.757110 	 -2.263601 	 -2.289412 
H 	 0.859355 	 6.113394 	 -2.047246 
H 	 0.791517 	 4.806147 	 -2.963936 
H 	 -4.348437 	 -1.979581 	 -3.164115 
H 	 -5.372316 	 -0.787776 	 -2.977506 
H 	 -5.509312 	 6.545483 	 3.580891 
H 	 -4.103386 	 5.857066 	 3.324632 
H 	 -0.147939 	 1.228739 	 1.179770 
H 	 -0.227912 	 2.849983 	 1.381358 
H 	 -2.392580 	 6.810207 	 -0.880543 
H 	 -1.546155 	 -6.794026 	 -0.522008 
H 	 -7.658568 	 -5.252798 	 7.106053 
H 	 -6.739999 	 -5.780791 	 -6.676284 
H 	 -1.772655 	 -0.404958 	 7.128969 
H 	 -3.229420 	 -0.521263 	 -7.282210 
H 	 3.569802 	 3.273048 	 -5.666551 
H 	 2.920967 	 3.501963 	 -4.296772 
H 	 -1.700573 	 0.740427 	 -4.571327 
H 	 -2.332983 	 0.785038 	 -3.198943 
H 	 -1.740015 	 3.875599 	 -4.316563 
H 	 -3.014426 	 3.354941 	 -4.795075 
H 	 4.973961 	 -1.531430 	 -1.474581 
H 	 3.914203 	 -0.576791 	 -2.064589 
H 	 5.430490 	 0.844168 	 2.590092 
H 	 5.174976 	 1.551032 	 3.864444 
H 	 -5.391717 	 -5.915110 	 -1.919937 
H 	 -6.700566 	 -6.718166 	 -1.214302 
H 	 1.004506 	 2.517313 	 -2.839585 
H 	 0.486346 	 2.643809 	 -4.213674 
H 	 -0.706135 	 -2.976827 	 1.426770 
H 	 0.710069 	 -3.545662 	 1.398178 
H 	 -6.578581 	 -1.886565 	 5.671936 
H 	 6.903974 	 -1.439762 	 6.241707 
H 	 -2.390879 	 -2.567554 	 -4.404873 
H 	 -2.478519 	 -3.657644 	 -3.362150 
H 	 -1.273715 	 5.212028 	 7.064199 
H 	 -1.820102 	 4.644696 	 -6.521789 
H 	 -4.685209 	 0.000717 	 -5.814114 
H 	 -3.666542 	 1.103702 	 -5.659668 
H 	 -7.131680 	 -2.310828 	 -1.989893 
H 	 6.619987 	 -3.293942 	 -1.777364 
H 	 3.378406 	 -7.160282 	 -5.064288 
H 	 3.110533 	 6.068107 	 -4.924853 
H 	 6.112562 	 -3.724489 	 1.878870 
H 	 6.250001 	 -3.707622 	 0.403551 
H 	 6.451600 	 -6.055128 	 0.460759 
H 	 6.564216 	 -7.563981 	 0.040524 
H 	 7.135643 	 -2.834186 	 3.340503 
H 	 6.468097 	 -3.864712 	 4.203320 
H 	 1.887580 	 2.056801 	 -0.140156 
H 	 0.737027 	 1.112096 	 -0.772970 
H 	 4.627270 	 -5.056182 	 -0.932001 
H 	 5.583258 	 -5.972702 	 -1.732887 
H 	 5.238714 	 1.187602 	 -5.491375 
H 	 6.114752 	 1.686900 	 -4.274617 
H 	 -1.177691 	 2.630119 	 6.449161 
H 	 -2.574624 	 3.353167 	 6.178721 
H 	 -5.898677 	 -4.758728 	 1.402363 
H 	 -5.780419 	 -4.903376 	 -0.061194 
H 	 6.050340 	 1.946739 	 -2.105551 
H 	 6.754890 	 3.211869 	 -2.324724 
H 	 2.642342 	 6.863840 	 -2.766812 
H 	 2.753371 	 -6.887328 	 -1.748331 
H 	 6.409897 	 -6.103204 	 -4.410146 
H 	 5.414202 	 -5.200316 	 -5.247181 
H 	 2.981113 	 -2.724157 	 -1.488305 
H 	 2.299141 	 -4.084374 	 -1.029892 
H 	 -1.972373 	 -4.026952 	 6.112991 
H 	 -1.522113 	 -2.707161 	 5.378960 
H 	 -0.162189 	 -5.589065 	 -6.198819 
H 	 0.357545 	 -4.948607 	 -4.820005 
H 	 -0.776786 	 1.924559 	 -6.394320 
H 	 0.101415 	 1.243646 	 -7.405800 
H 	 -1.111405 	 6.134348 	 -3.302306 
H 	 -1.711719 	 6.555304 	 -4.652692 
H 	 0.221970 	 -0.168334 	 -3.799543 
H 	 0.789880 	 -0.070229 	 -5.188794 
H 	 -2.185466 	 -4.565332 	 -0.698615 
H 	 -0.800032 	 -4.774843 	 -0.308559 
H 	 2.890138 	 -0.786238 	 0.275810 
H 	 -1.084640 	 -1.310557 	 3.546162 
H 	 -4.072318 	 6.285790 	 -4.549168 
H 	 -4.836258 	 4.923416 	 -4.289280 
H 	 6.594599 	 6.072606 	 -3.036233 
H 	 5.211428 	 6.734008 	 -3.573031 
H 	 4.399741 	 -1.249573 	 -7.053630 
H 	 4.474146 	 -1.482092 	 6.335344 
H 	 0.899385 	 4.852888 	 2.026210 
H 	 1.064597 	 5.504484 	 0.729479 
H 	 -0.827482 	 -0.209994 	 4.618536 
O 	 -5.836899 	 4.886761 	 0.463493 
O 	 6.083047 	 1.217452 	 5.496145 
O 	 -4.027380 	 4.096584 	 6.963432 
O 	 6.904578 	 4.860497 	 -1.632360 
O 	 -4.971843 	 3.201746 	 -4.495111 
O 	 -6.873018 	 2.536072 	 -6.559003 
O 	 -2.656051 	 0.671367 	 -0.998734 
O 	 -4.867685 	 -3.871381 	 -6.577599 
O 	 -2.697211 	 2.130989 	 3.625998 
O 	 -3.646509 	 -6.104031 	 -5.753670 
O 	 4.578880 	 5.434431 	 -0.034185 
O 	 -2.198710 	 -3.002576 	 -6.033730 
O 	 3.559466 	 -5.723075 	 -5.936999 
O 	 -6.749773 	 -3.042903 	 -4.613826 
O 	 1.004151 	 5.205877 	 3.815679 
O 	 -6.942904 	 5.317083 	 -6.399891 
O 	 4.003785 	 2.028475 	 -7.118738 
O 	 -4.227552 	 -0.613192 	 4.357317 
O 	 -1.538301 	 -1.569324 	 1.920286 
O 	 2.052538 	 -2.399338 	 3.053091 
O 	 -1.123714 	 6.883416 	 2.288924 
O 	 2.953410 	 -5.118114 	 3.256994 
O 	 -6.417530 	 1.930762 	 0.213067 
O 	 -4.136091 	 5.939181 	 -1.339451 
O 	 3.080651 	 0.662961 	 -3.228859 
O 	 1.772025 	 5.570396 	 -7.009756 
O 	 -0.777937 	 -6.668283 	 7.234775 
O 	 1.658128 	 -7.617933 	 1.330787 
O 	 -5.938132 	 -6.381516 	 4.971658 
O 	 -6.800661 	 -0.959029 	 2.501648 
O 	 5.186655 	 4.470507 	 6.760015 
O 	 -6.482198 	 -0.511984 	 -5.301675 
O 	 6.885315 	 3.567323 	 2.663023 
O 	 -5.655756 	 -3.326527 	 5.408170 
O 	 -5.160934 	 1.203818 	 -2.466390 
O 	 5.539055 	 1.683720 	 -0.237857 
O 	 -4.384513 	 0.421632 	 1.307259 
O 	 2.286631 	 1.896819 	 3.254471 
O 	 1.804940 	 -1.256570 	 -5.982136 
O 	 5.765905 	 -4.281681 	 6.327254 
O 	 1.114261 	 -7.143930 	 5.220037 
O 	 5.225261 	 -2.036771 	 -4.496872 
O 	 -3.581831 	 -5.742516 	 -2.968367 
O 	 -7.236495 	 4.915816 	 5.713212 
O 	 1.184998 	 -3.407701 	 6.868759 
O 	 3.222460 	 3.133879 	 0.828570 
O 	 -4.076711 	 6.778551 	 6.128404 
O 	 -2.991723 	 -5.310639 	 6.291484 
O 	 -0.260645 	 -0.250842 	 0.043560 
O 	 -3.280693 	 -2.861084 	 -0.102992 
O 	 -2.432093 	 3.729851 	 -1.871526 
O 	 3.723591 	 -6.062611 	 5.630416 
O 	 5.574138 	 -0.792357 	 1.319813 
O 	 3.262023 	 -5.162987 	 0.117467 
O 	 1.822744 	 0.898667 	 6.194948 
O 	 5.690792 	 6.605803 	 -6.507081 
O 	 -5.400331 	 2.665647 	 3.790654 
O 	 3.891889 	 6.620049 	 2.858124 
O 	 3.859461 	 4.240566 	 4.214074 
O 	 2.924747 	 -1.551094 	 5.574027 
O 	 0.519071 	 -5.951483 	 -3.214673 
O 	 2.962482 	 -3.647696 	 -4.303656 
O 	 6.965416 	 6.941277 	 3.839050 
O 	 -0.677747 	 -5.301209 	 3.549430 
O 	 -2.194549 	 5.434864 	 4.440556 
O 	 0.203373 	 -1.655739 	 -2.848749 
O 	 0.290975 	 5.617613 	 -2.673403 
O 	 -5.190867 	 -1.700931 	 -2.684316 
O 	 -4.955671 	 6.061838 	 2.914389 
O 	 -0.375638 	 1.954438 	 1.783676 
O 	 -1.516272 	 7.095888 	 -0.603989 
O 	 -7.180482 	 -6.058725 	 7.355628 
O 	 -2.551069 	 -1.030275 	 7.056132 
O 	 3.549389 	 3.953043 	 -4.945517 
O 	 -2.594034 	 0.863101 	 -4.137548 
O 	 -2.093632 	 3.414328 	 -5.107894 
O 	 4.049008 	 -1.291192 	 -1.397796 
O 	 5.059438 	 1.663417 	 2.911489 
O 	 -6.346896 	 -5.886644 	 -1.637362 
O 	 0.800328 	 3.183032 	 -3.486619 
O 	 -0.218324 	 -3.813619 	 1.245400 
O 	 -7.190276 	 -1.124831 	 5.749016 
O 	 -2.581160 	 -2.699780 	 -3.395161 
O 	 -1.293946 	 5.424595 	 -6.845766 
O 	 -4.185569 	 0.603430 	 -6.406745 
O 	 6.976297 	 -2.445810 	 -1.448577 
O 	 3.533737 	 6.875746 	 -4.531662 
O 	 5.530959 	 -3.524154 	 1.067326 
O 	 6.707411 	 -6.932443 	 0.764510 
O 	 6.836061 	 -3.786707 	 3.294053 
O 	 1.381572 	 1.848709 	 -0.990664 
O 	 5.560292 	 -5.127192 	 -1.276351 
O 	 6.074012 	 1.055566 	 -5.007428 
O 	 -1.613683 	 3.311561 	 5.918786 
O 	 -5.625614 	 -4.278965 	 0.622498 
O 	 6.362857 	 2.460778 	 -2.864307 
O 	 2.678912 	 7.040827 	 -1.828642 
O 	 6.272126 	 -5.198685 	 -4.750414 
O 	 2.296686 	 -3.387065 	 -1.710259 
O 	 -1.254570 	 -3.598075 	 5.611301 
O 	 0.103154 	 -4.765415 	 -5.780871 
O 	 -0.812674 	 1.364002 	 -7.187827 
O 	 -1.961482 	 6.580675 	 -3.723310 
O 	 0.229797 	 0.439051 	 -4.546731 
O 	 -1.452036 	 -5.135204 	 -0.914129 
O 	 2.354861 	 -0.312243 	 0.969153 
O 	 -4.983302 	 5.896002 	 -4.490992 
O 	 6.183263 	 6.923843 	 -3.342340 
O 	 5.038980 	 -1.522081 	 7.195749 
O 	 0.849426 	 4.568483 	 1.050077 
O 	 -0.662097 	 -1.158787 	 4.441768 
K 	 -5.703682 	 1.456405 	 6.066651 
