333
conformation = 54
H 	 -5.894132 	 3.877671 	 0.472150 
H 	 -5.707538 	 5.187152 	 1.422229 
H 	 5.500181 	 0.917853 	 6.189473 
H 	 6.634732 	 0.314832 	 5.347951 
H 	 -4.190762 	 3.808629 	 -6.917986 
H 	 -4.149497 	 5.010583 	 6.883949 
H 	 6.199779 	 4.983698 	 -1.077239 
H 	 -7.235377 	 4.664203 	 -0.862776 
H 	 -5.038721 	 2.575682 	 -3.703782 
H 	 -5.530132 	 2.780785 	 -5.190489 
H 	 -7.543308 	 2.000882 	 -6.147399 
H 	 -6.952903 	 3.471420 	 -6.514555 
H 	 -1.668639 	 0.369502 	 -0.676680 
H 	 -2.539725 	 1.627748 	 -1.124142 
H 	 -5.331111 	 -3.455550 	 -5.846289 
H 	 -3.882816 	 -3.652231 	 -6.300869 
H 	 -1.911826 	 2.011054 	 3.016246 
H 	 -2.207547 	 2.418822 	 4.490633 
H 	 -3.937315 	 -5.371312 	 -6.223921 
H 	 -2.747204 	 -6.257908 	 -6.156136 
H 	 4.189761 	 4.576838 	 0.206667 
H 	 4.083520 	 5.935712 	 -0.686835 
H 	 -1.334666 	 -3.562645 	 -6.192657 
H 	 -2.124529 	 -2.301116 	 -6.682872 
H 	 3.243709 	 -5.731909 	 -6.800203 
H 	 3.117697 	 -5.082463 	 -5.384681 
H 	 -7.220546 	 -3.985136 	 -4.338377 
H 	 -6.141673 	 -2.942977 	 -3.782211 
H 	 2.041943 	 4.865766 	 4.084936 
H 	 1.063726 	 6.070002 	 4.107988 
H 	 7.209970 	 5.628052 	 -5.981327 
H 	 -6.156328 	 5.587305 	 -5.835392 
H 	 4.502984 	 2.765381 	 7.311540 
H 	 3.152142 	 1.870634 	 7.250426 
H 	 -3.427689 	 -0.428074 	 4.871755 
H 	 -4.264388 	 -1.610765 	 4.595409 
H 	 -0.927131 	 -1.025133 	 1.202776 
H 	 -2.333192 	 -1.666687 	 1.498645 
H 	 1.212542 	 -2.026221 	 3.372301 
H 	 2.362168 	 -1.853140 	 2.373904 
H 	 -1.378031 	 6.923227 	 1.304561 
H 	 -1.468370 	 -7.296070 	 2.770129 
H 	 2.669578 	 -4.259554 	 3.118647 
H 	 2.354499 	 -5.723236 	 2.826698 
H 	 -6.060156 	 1.136440 	 0.738175 
H 	 -7.373095 	 1.803694 	 0.301523 
H 	 -4.626179 	 6.240145 	 -2.101945 
H 	 -4.727907 	 5.595491 	 -0.638518 
H 	 2.463498 	 0.228996 	 -3.796312 
H 	 2.569790 	 1.024496 	 -2.446804 
H 	 1.819751 	 4.699914 	 -6.442026 
H 	 0.915224 	 5.729868 	 -7.207502 
H 	 -0.000681 	 -6.775397 	 6.573202 
H 	 -1.009918 	 -7.568386 	 -7.275622 
H 	 2.453116 	 6.786820 	 1.898519 
H 	 0.873249 	 7.088143 	 1.818437 
H 	 -6.666622 	 -6.647061 	 4.478205 
H 	 -6.225842 	 -6.399955 	 5.912050 
H 	 -5.915676 	 -1.144151 	 2.098294 
H 	 -6.457143 	 -0.469689 	 3.285520 
H 	 5.140047 	 5.212598 	 7.387789 
H 	 6.142477 	 4.477687 	 6.408656 
H 	 -6.718148 	 -1.439938 	 -4.973354 
H 	 -7.118803 	 0.077740 	 -5.072751 
H 	 7.153999 	 3.576200 	 3.628448 
H 	 6.307122 	 2.829284 	 2.580213 
H 	 -5.996403 	 -4.174660 	 5.047790 
H 	 -5.299212 	 -3.755613 	 6.360663 
H 	 -4.290011 	 0.838854 	 -2.103409 
H 	 -5.678958 	 1.546782 	 -1.732276 
H 	 5.658475 	 0.786142 	 0.315562 
H 	 4.845024 	 2.213142 	 0.154344 
H 	 -3.767256 	 0.164699 	 2.084533 
H 	 -3.785686 	 0.420089 	 0.507382 
H 	 1.420660 	 2.106647 	 3.171110 
H 	 2.419232 	 1.013191 	 2.772949 
H 	 2.411707 	 -2.022364 	 -5.495442 
H 	 1.663341 	 -1.607867 	 -6.870631 
H 	 5.454846 	 -3.646603 	 7.002540 
H 	 5.189171 	 -4.972257 	 6.232282 
H 	 0.788543 	 -6.541372 	 4.505748 
H 	 1.933885 	 -6.728076 	 5.505574 
H 	 5.399774 	 -1.104224 	 -4.633627 
H 	 6.166174 	 -2.440299 	 -4.369251 
H 	 -3.592454 	 -6.220215 	 -3.859319 
H 	 -2.941632 	 -6.306962 	 -2.463994 
H 	 -6.814941 	 4.968830 	 6.542137 
H 	 -7.052777 	 5.679575 	 5.209614 
H 	 1.048323 	 -3.925408 	 -7.162809 
H 	 0.552174 	 -3.548738 	 6.303136 
H 	 3.497605 	 2.468030 	 1.644486 
H 	 2.478729 	 3.592646 	 1.178160 
H 	 -4.502987 	 7.081578 	 5.254578 
H 	 -3.172555 	 6.408584 	 5.677102 
H 	 -2.375251 	 -6.174181 	 6.526028 
H 	 -3.703465 	 -5.675627 	 5.821270 
H 	 1.409447 	 -0.456887 	 0.661954 
H 	 -0.102809 	 -0.809554 	 -0.786748 
H 	 -4.202665 	 -2.986673 	 0.243012 
H 	 -3.320755 	 -2.248661 	 -0.811952 
H 	 -1.543894 	 4.152543 	 -1.796168 
H 	 -3.051903 	 4.379865 	 -1.891747 
H 	 4.403614 	 -6.791069 	 5.763704 
H 	 3.845674 	 -5.903031 	 4.680066 
H 	 5.548222 	 -1.877743 	 1.182170 
H 	 6.604265 	 -0.839405 	 1.707186 
H 	 4.028664 	 -4.754583 	 0.650353 
H 	 2.981153 	 -5.994988 	 0.598061 
H 	 2.388481 	 0.064463 	 6.006046 
H 	 1.884737 	 1.259328 	 5.259955 
H 	 5.869215 	 -7.443075 	 -6.814402 
H 	 4.993977 	 6.592368 	 -5.770776 
H 	 -5.893805 	 2.996087 	 3.137772 
H 	 -4.379086 	 2.512887 	 3.442739 
H 	 4.115942 	 5.730584 	 3.370798 
H 	 4.422279 	 6.416001 	 1.990971 
H 	 4.134040 	 3.267619 	 3.920246 
H 	 4.297010 	 4.299287 	 5.134327 
H 	 2.758404 	 -1.978411 	 4.640179 
H 	 2.468454 	 -2.230147 	 6.171680 
H 	 0.066505 	 -5.586225 	 -2.527909 
H 	 -0.122325 	 -6.736682 	 -3.338233 
H 	 3.844821 	 -3.227613 	 -4.273878 
H 	 2.776112 	 -3.839065 	 -3.301016 
H 	 7.047437 	 -7.641465 	 2.941648 
H 	 6.107016 	 7.045102 	 4.022083 
H 	 -1.012442 	 -4.821916 	 4.319486 
H 	 -0.717611 	 -4.839290 	 2.697810 
H 	 -1.623323 	 5.690746 	 3.576525 
H 	 -1.644495 	 4.731250 	 4.818365 
H 	 -0.669642 	 -1.964939 	 -2.871600 
H 	 0.814839 	 -2.415639 	 -2.510699 
H 	 0.955889 	 6.095862 	 -2.099158 
H 	 0.708653 	 4.710550 	 -2.913939 
H 	 -4.220489 	 -2.050631 	 -3.113858 
H 	 -5.262862 	 -0.882642 	 -2.962070 
H 	 -5.351047 	 6.578429 	 3.596386 
H 	 -4.100247 	 5.707599 	 3.246905 
H 	 -0.118636 	 1.212046 	 1.178122 
H 	 -0.229442 	 2.709082 	 1.253516 
H 	 -2.367871 	 6.818938 	 -0.883717 
H 	 -1.592628 	 -6.810935 	 -0.565888 
H 	 -7.635454 	 -5.348616 	 7.109377 
H 	 -6.410095 	 -5.839944 	 -6.847011 
H 	 -1.707908 	 -0.591794 	 7.136267 
H 	 -3.191450 	 -0.541408 	 -7.208098 
H 	 3.648172 	 3.104645 	 -5.589517 
H 	 3.128559 	 3.582161 	 -4.155546 
H 	 -1.594427 	 0.714923 	 -4.467225 
H 	 -2.512864 	 0.850259 	 -3.191703 
H 	 -1.529220 	 3.498353 	 -4.286572 
H 	 -2.980347 	 3.360506 	 -4.856844 
H 	 5.018231 	 -1.524182 	 -1.484323 
H 	 3.835857 	 -0.724373 	 -2.082769 
H 	 5.241892 	 0.811556 	 2.436879 
H 	 5.258939 	 1.335485 	 3.842084 
H 	 -5.323586 	 -6.044343 	 -1.980888 
H 	 -6.380187 	 -6.768177 	 -1.085018 
H 	 1.000303 	 2.538971 	 -2.736759 
H 	 0.598907 	 2.618796 	 -4.242604 
H 	 -0.799099 	 -3.056546 	 1.462578 
H 	 0.681848 	 -3.637555 	 1.435584 
H 	 -6.606420 	 -1.923185 	 5.775184 
H 	 7.000962 	 -1.439998 	 6.410100 
H 	 -2.270571 	 -2.566117 	 -4.366368 
H 	 -2.487194 	 -3.692261 	 -3.291362 
H 	 -1.119801 	 5.066460 	 7.115085 
H 	 -1.892584 	 4.738088 	 -6.403198 
H 	 -4.873090 	 0.144430 	 -5.797574 
H 	 -3.438784 	 0.961530 	 -5.786938 
H 	 -7.090944 	 -2.281294 	 -1.940076 
H 	 6.770807 	 -3.433568 	 -1.685029 
H 	 3.284667 	 -7.301643 	 -5.093283 
H 	 2.972091 	 6.115551 	 -5.040994 
H 	 5.853709 	 -3.891725 	 1.897815 
H 	 6.276494 	 -3.441845 	 0.330243 
H 	 6.505920 	 -6.265321 	 0.257316 
H 	 6.678876 	 -7.754265 	 0.141260 
H 	 -7.628183 	 -2.881808 	 3.249839 
H 	 6.325849 	 -3.936314 	 4.034405 
H 	 2.032240 	 2.178004 	 -0.196946 
H 	 0.996230 	 0.990142 	 -0.596740 
H 	 4.620245 	 -5.189407 	 -1.038799 
H 	 5.667184 	 -6.056782 	 -1.735460 
H 	 5.350777 	 1.292690 	 -5.577241 
H 	 6.135984 	 1.666538 	 -4.290965 
H 	 -1.381010 	 2.662067 	 6.624735 
H 	 -2.589361 	 3.552903 	 6.270081 
H 	 -5.823531 	 -4.919284 	 1.287107 
H 	 -5.715635 	 -4.766931 	 -0.205733 
H 	 6.084164 	 1.782281 	 -2.213797 
H 	 6.715320 	 3.258432 	 -2.454928 
H 	 2.785305 	 6.946697 	 -2.734042 
H 	 2.779660 	 -6.933709 	 -1.627020 
H 	 6.338607 	 -6.114460 	 -4.350782 
H 	 5.412285 	 -5.255049 	 -5.238017 
H 	 2.993707 	 -2.682426 	 -1.479449 
H 	 2.550575 	 -4.072723 	 -1.026569 
H 	 -2.037993 	 -4.031003 	 6.013441 
H 	 -1.419698 	 -2.781123 	 5.275564 
H 	 -0.185830 	 -5.581372 	 -6.258320 
H 	 0.206149 	 -5.138269 	 -4.814627 
H 	 -0.740922 	 1.781974 	 -6.342377 
H 	 0.093139 	 1.138172 	 7.343958 
H 	 -1.080132 	 6.085749 	 -3.282012 
H 	 -1.648770 	 6.619501 	 -4.698265 
H 	 0.184539 	 -0.256506 	 -3.910989 
H 	 0.719762 	 -0.121883 	 -5.283453 
H 	 -2.236668 	 -4.640514 	 -0.723858 
H 	 -0.919416 	 -4.911776 	 -0.110947 
H 	 2.959181 	 -0.418273 	 0.224813 
H 	 -0.969423 	 -1.226749 	 3.498624 
H 	 -4.143425 	 6.385123 	 -4.523382 
H 	 -4.677951 	 4.884064 	 -4.482103 
H 	 6.488223 	 6.025320 	 -2.999224 
H 	 5.331895 	 6.710410 	 -3.779360 
H 	 4.432662 	 -1.451878 	 -7.027187 
H 	 4.523879 	 -1.485037 	 6.363220 
H 	 0.814359 	 4.790258 	 2.017233 
H 	 0.906436 	 5.351338 	 0.463922 
H 	 -0.588509 	 -0.290925 	 4.664076 
O 	 -5.780505 	 4.851205 	 0.490339 
O 	 6.099359 	 1.169010 	 5.435800 
O 	 -3.990812 	 4.030516 	 7.063415 
O 	 7.019702 	 4.828456 	 -1.579124 
O 	 -4.918712 	 3.154154 	 -4.502666 
O 	 -6.830287 	 2.474525 	 -6.552868 
O 	 -2.561738 	 0.646651 	 -1.017270 
O 	 -4.815125 	 -3.894441 	 -6.584817 
O 	 -2.645832 	 2.115326 	 3.643889 
O 	 -3.600535 	 -6.157076 	 -5.726357 
O 	 4.627200 	 5.430462 	 -0.042468 
O 	 -2.150455 	 -3.056791 	 -5.987017 
O 	 3.570347 	 -5.796411 	 -5.905210 
O 	 -6.720556 	 -3.134287 	 -4.584080 
O 	 1.102604 	 5.127841 	 3.911891 
O 	 -6.899691 	 5.231100 	 -6.390107 
O 	 4.027096 	 2.009042 	 -7.134900 
O 	 -4.219160 	 -0.667709 	 4.386536 
O 	 -1.469595 	 -1.640752 	 1.887833 
O 	 2.041927 	 -2.458744 	 3.040961 
O 	 -1.038889 	 6.868568 	 2.258411 
O 	 2.997138 	 -5.158952 	 3.192611 
O 	 -6.401688 	 1.865471 	 0.226463 
O 	 -4.098526 	 5.918730 	 -1.362820 
O 	 3.080310 	 0.639827 	 -3.156452 
O 	 1.851391 	 5.546119 	 -6.996629 
O 	 -0.746637 	 -6.704751 	 7.237993 
O 	 1.741458 	 -7.717187 	 1.332057 
O 	 -5.858483 	 -6.402714 	 5.001041 
O 	 -6.783166 	 -1.013693 	 2.557193 
O 	 5.212164 	 4.456410 	 6.813458 
O 	 -6.408176 	 -0.593625 	 -5.309643 
O 	 6.982508 	 3.539285 	 2.662636 
O 	 -5.570010 	 -3.378145 	 5.438605 
O 	 -5.174900 	 1.120233 	 -2.460850 
O 	 5.563376 	 1.640456 	 -0.244579 
O 	 -4.338786 	 0.397128 	 1.321436 
O 	 2.335267 	 1.815183 	 3.315601 
O 	 1.863947 	 -1.302716 	 -5.980022 
O 	 5.838875 	 -4.263510 	 6.337403 
O 	 1.097851 	 -7.178811 	 5.175619 
O 	 5.243747 	 -2.043775 	 -4.488886 
O 	 -3.512239 	 -5.704828 	 -2.982656 
O 	 -7.214866 	 4.839432 	 5.664593 
O 	 1.316022 	 -3.485392 	 6.906309 
O 	 3.278824 	 3.072534 	 0.870919 
O 	 -4.056562 	 6.751939 	 6.074490 
O 	 -2.924947 	 -5.388227 	 6.282647 
O 	 -0.196591 	 -0.308952 	 0.045926 
O 	 -3.263990 	 -2.930471 	 -0.119446 
O 	 -2.376405 	 3.645054 	 -1.820259 
O 	 3.735077 	 -6.096072 	 5.651735 
O 	 5.707549 	 -0.872817 	 1.331191 
O 	 3.295239 	 -5.200699 	 0.098737 
O 	 1.842310 	 0.858584 	 6.159587 
O 	 5.731809 	 6.564491 	 -6.475017 
O 	 -5.300184 	 2.564894 	 3.799205 
O 	 3.940461 	 6.562439 	 2.851125 
O 	 3.931076 	 4.200960 	 4.191685 
O 	 2.939449 	 -1.605519 	 5.558557 
O 	 0.582380 	 -6.032547 	 -3.276784 
O 	 3.017255 	 -3.740460 	 -4.274093 
O 	 7.080495 	 6.895645 	 3.847016 
O 	 -0.622143 	 -5.364699 	 3.535731 
O 	 -2.150918 	 5.424263 	 4.373629 
O 	 0.255218 	 -1.674474 	 -2.883172 
O 	 0.330098 	 5.603466 	 -2.669329 
O 	 -5.135629 	 -1.827624 	 -2.731652 
O 	 -4.943418 	 6.022454 	 2.881122 
O 	 -0.413655 	 1.898435 	 1.817346 
O 	 -1.479148 	 7.083530 	 -0.606669 
O 	 -7.096215 	 -6.100395 	 7.365242 
O 	 -2.583142 	 -1.061375 	 7.041238 
O 	 3.667367 	 3.872091 	 -4.955150 
O 	 -2.545172 	 0.821961 	 -4.171401 
O 	 -2.046039 	 3.374968 	 -5.102885 
O 	 4.100314 	 -1.328756 	 -1.333602 
O 	 5.145213 	 1.626394 	 2.943222 
O 	 -6.270930 	 -5.938083 	 -1.650452 
O 	 0.875171 	 3.128007 	 -3.485137 
O 	 -0.244990 	 -3.847619 	 1.227409 
O 	 -7.162367 	 -1.103448 	 5.827789 
O 	 -2.478111 	 -2.732867 	 -3.386349 
O 	 -1.275441 	 5.382804 	 -6.837025 
O 	 -4.158668 	 0.527160 	 -6.378897 
O 	 6.996376 	 -2.506120 	 -1.460898 
O 	 3.570085 	 6.770437 	 -4.586913 
O 	 5.573647 	 -3.568361 	 1.008764 
O 	 6.793617 	 -7.036346 	 0.794007 
O 	 6.925361 	 -3.808977 	 3.284647 
O 	 1.411097 	 1.840103 	 -0.929778 
O 	 5.597188 	 -5.221724 	 -1.253029 
O 	 6.099549 	 1.011894 	 -5.016444 
O 	 -1.627598 	 3.298920 	 5.907427 
O 	 -5.549615 	 -4.314321 	 0.605085 
O 	 6.443479 	 2.394876 	 -2.861837 
O 	 2.777294 	 6.995484 	 -1.768528 
O 	 6.295731 	 -5.249320 	 -4.788990 
O 	 2.341176 	 -3.391639 	 -1.700782 
O 	 -1.214127 	 -3.641828 	 5.626411 
O 	 0.114726 	 -4.812232 	 -5.766331 
O 	 -0.756089 	 1.305358 	 -7.184368 
O 	 -1.900429 	 6.517284 	 -3.780433 
O 	 0.295954 	 0.443312 	 -4.581227 
O 	 -1.454103 	 -5.155734 	 -0.874852 
O 	 2.371700 	 -0.373123 	 1.020977 
O 	 -4.964310 	 5.829342 	 -4.492785 
O 	 6.244838 	 6.896514 	 -3.396101 
O 	 5.087132 	 -1.570998 	 7.190597 
O 	 0.885511 	 4.569100 	 1.069932 
O 	 -0.580153 	 -1.240649 	 4.411053 
K 	 -5.643924 	 1.420129 	 6.047197 
