333
conformation = 48
H 	 -5.864479 	 3.960857 	 0.594354 
H 	 -5.789533 	 5.198130 	 1.433264 
H 	 5.524350 	 1.003852 	 6.145446 
H 	 6.687151 	 0.469674 	 5.293945 
H 	 -4.147259 	 3.909429 	 -6.841776 
H 	 -4.171288 	 5.048364 	 6.955094 
H 	 6.235174 	 5.144980 	 -1.003562 
H 	 -7.121865 	 4.768150 	 -0.883508 
H 	 -5.000777 	 2.660532 	 -3.713871 
H 	 -5.481149 	 2.765065 	 -5.190127 
H 	 -7.601469 	 2.040434 	 -6.180152 
H 	 -6.950991 	 3.531574 	 -6.529737 
H 	 -1.641436 	 0.450822 	 -0.585685 
H 	 -2.459509 	 1.730472 	 -1.101143 
H 	 -5.350370 	 -3.478609 	 -5.833470 
H 	 -3.870277 	 -3.581767 	 -6.304755 
H 	 -1.940665 	 2.170033 	 2.962302 
H 	 -2.283793 	 2.648059 	 4.504745 
H 	 -3.902519 	 -5.303051 	 -6.213839 
H 	 -2.694110 	 -6.216903 	 -6.070912 
H 	 4.142617 	 4.723851 	 0.222461 
H 	 4.084860 	 6.083408 	 -0.669598 
H 	 -1.310886 	 -3.489616 	 -6.113771 
H 	 -2.148672 	 -2.227287 	 -6.611941 
H 	 3.223211 	 -5.616052 	 -6.834684 
H 	 3.146020 	 -4.939282 	 -5.369313 
H 	 -7.250440 	 -3.824582 	 -4.244272 
H 	 -6.087254 	 -2.845161 	 -3.843102 
H 	 2.079809 	 4.954532 	 4.068901 
H 	 1.119236 	 6.153733 	 4.208716 
H 	 7.199228 	 5.777099 	 -6.010896 
H 	 -6.127891 	 5.730006 	 -5.903296 
H 	 4.414828 	 2.905267 	 7.279020 
H 	 3.206676 	 1.994857 	 7.239872 
H 	 -3.418569 	 -0.387980 	 4.935006 
H 	 -4.229010 	 -1.561493 	 4.563608 
H 	 -0.986463 	 -0.969490 	 1.191252 
H 	 -2.396709 	 -1.624160 	 1.480491 
H 	 1.179112 	 -1.980262 	 3.372782 
H 	 2.338517 	 -1.743461 	 2.272898 
H 	 -1.370519 	 7.032535 	 1.338464 
H 	 -1.398188 	 -7.145010 	 2.661362 
H 	 2.608196 	 -4.162774 	 3.065329 
H 	 2.333495 	 -5.749378 	 2.816219 
H 	 -6.069401 	 1.155856 	 0.796798 
H 	 -7.381559 	 1.851639 	 0.298263 
H 	 -4.646587 	 6.207504 	 -2.173735 
H 	 -4.694103 	 5.688453 	 -0.630319 
H 	 2.467652 	 0.404617 	 -3.836406 
H 	 2.444060 	 1.144820 	 -2.434062 
H 	 1.837038 	 4.823827 	 -6.499868 
H 	 0.961834 	 5.832647 	 -7.305550 
H 	 -0.029691 	 -6.644094 	 6.607561 
H 	 -0.955741 	 -7.503140 	 -7.348838 
H 	 2.435332 	 6.953859 	 1.965297 
H 	 0.868033 	 -7.666308 	 1.729904 
H 	 -6.645914 	 -6.472324 	 4.466927 
H 	 -6.240773 	 -6.334481 	 5.965104 
H 	 -5.911108 	 -1.061545 	 2.143049 
H 	 -6.478815 	 -0.339176 	 3.304331 
H 	 5.176886 	 5.369408 	 7.437881 
H 	 6.100187 	 4.636458 	 6.456149 
H 	 -6.714761 	 -1.382517 	 -4.984326 
H 	 -7.073011 	 0.083240 	 -5.060173 
H 	 7.183464 	 3.659001 	 3.620053 
H 	 6.363658 	 2.912271 	 2.520138 
H 	 -6.021648 	 -4.041140 	 5.016011 
H 	 -5.300233 	 -3.630420 	 6.326608 
H 	 -4.337873 	 0.916215 	 -2.098767 
H 	 -5.665929 	 1.556699 	 -1.697876 
H 	 5.639749 	 0.882029 	 0.292670 
H 	 4.827264 	 2.262632 	 0.081018 
H 	 -3.805544 	 0.199909 	 2.058522 
H 	 -3.799302 	 0.625763 	 0.523452 
H 	 1.383701 	 2.111381 	 3.133335 
H 	 2.419188 	 1.056801 	 2.797263 
H 	 2.293180 	 -1.914843 	 -5.488647 
H 	 1.693714 	 -1.617823 	 -6.844718 
H 	 5.546658 	 -3.465482 	 6.959756 
H 	 5.115106 	 -4.787651 	 6.193439 
H 	 0.812305 	 -6.344542 	 4.503381 
H 	 1.912498 	 -6.719277 	 5.490996 
H 	 5.441476 	 -0.952214 	 -4.594096 
H 	 6.128942 	 -2.325452 	 -4.318737 
H 	 -3.518572 	 -6.031266 	 -3.839211 
H 	 -3.001251 	 -6.290308 	 -2.486540 
H 	 -6.796183 	 5.040275 	 6.536923 
H 	 -7.150716 	 5.749397 	 5.132577 
H 	 1.094419 	 -3.800166 	 -7.129318 
H 	 0.519626 	 -3.456522 	 6.337633 
H 	 3.549050 	 2.588142 	 1.658867 
H 	 2.456780 	 3.700367 	 1.090657 
H 	 -4.512498 	 7.220637 	 5.293608 
H 	 -3.280682 	 6.533916 	 5.600351 
H 	 -2.379433 	 -6.086114 	 6.423747 
H 	 -3.721746 	 -5.692711 	 5.845126 
H 	 1.420254 	 -0.374866 	 0.692700 
H 	 -0.122685 	 -0.657419 	 -0.840360 
H 	 -4.159509 	 -3.051781 	 0.160793 
H 	 -3.330767 	 -2.156697 	 -0.827905 
H 	 -1.563615 	 4.271698 	 -1.835998 
H 	 -3.049460 	 4.401214 	 -1.928328 
H 	 4.327615 	 -6.753233 	 5.784473 
H 	 3.798647 	 -5.697281 	 4.707108 
H 	 5.543254 	 -1.764901 	 1.177870 
H 	 6.588106 	 -0.890038 	 1.837075 
H 	 3.985891 	 -4.668072 	 0.566847 
H 	 2.926568 	 -5.840500 	 0.592350 
H 	 2.346118 	 0.124257 	 5.986246 
H 	 1.927249 	 1.430486 	 5.318609 
H 	 5.900003 	 -7.305248 	 -6.761402 
H 	 4.999076 	 6.679681 	 -5.855778 
H 	 -5.884142 	 3.136409 	 3.171836 
H 	 -4.357431 	 2.494788 	 3.449721 
H 	 4.140660 	 5.795523 	 3.289832 
H 	 4.444139 	 6.580972 	 2.019216 
H 	 3.969869 	 3.336877 	 3.960226 
H 	 4.250312 	 4.369951 	 5.096329 
H 	 2.707968 	 -1.901461 	 4.654849 
H 	 2.472653 	 -2.120994 	 6.153316 
H 	 0.138347 	 -5.526105 	 -2.530861 
H 	 -0.061512 	 -6.707157 	 -3.358790 
H 	 3.839248 	 -3.061421 	 -4.220130 
H 	 2.825362 	 -3.691502 	 -3.309935 
H 	 7.117925 	 -7.630170 	 2.876393 
H 	 6.161422 	 7.088102 	 4.047115 
H 	 -1.074287 	 -4.797827 	 4.246075 
H 	 -0.748089 	 -4.787215 	 2.695116 
H 	 -1.591870 	 5.656829 	 3.532023 
H 	 -1.640729 	 4.910974 	 4.886324 
H 	 -0.668954 	 -1.912558 	 -2.854959 
H 	 0.783801 	 -2.337359 	 -2.623517 
H 	 0.949376 	 6.210345 	 -2.111212 
H 	 0.627142 	 4.788060 	 -2.920674 
H 	 -4.212695 	 -2.029659 	 -3.022782 
H 	 -5.298357 	 -0.828986 	 -2.925657 
H 	 -5.291843 	 6.655627 	 3.564115 
H 	 -4.131033 	 5.737769 	 3.247390 
H 	 -0.201377 	 1.288611 	 1.191305 
H 	 -0.269992 	 2.750823 	 1.264985 
H 	 -2.366207 	 6.824865 	 -0.873477 
H 	 -1.553509 	 -6.710085 	 -0.620946 
H 	 -7.632826 	 -5.183268 	 7.195838 
H 	 -6.398786 	 -5.701960 	 -6.956378 
H 	 -1.761875 	 -0.527160 	 7.138136 
H 	 -3.179127 	 -0.420736 	 -7.241591 
H 	 3.694425 	 3.184529 	 -5.535863 
H 	 3.227472 	 3.717876 	 -4.160465 
H 	 -1.603527 	 0.814182 	 -4.400602 
H 	 -2.607788 	 0.978131 	 -3.230277 
H 	 -1.517147 	 3.456805 	 -4.278433 
H 	 -2.998766 	 3.368528 	 -4.839833 
H 	 5.087695 	 -1.433424 	 -1.477109 
H 	 3.801980 	 -0.701227 	 -2.071083 
H 	 5.097620 	 0.910422 	 2.359304 
H 	 5.333441 	 1.363621 	 3.901943 
H 	 -5.360526 	 -6.012142 	 -2.033386 
H 	 -6.235156 	 -6.612190 	 -1.099025 
H 	 0.953070 	 2.636455 	 -2.692734 
H 	 0.646023 	 2.612217 	 -4.217302 
H 	 -0.817068 	 -2.963047 	 1.466458 
H 	 0.642626 	 -3.539531 	 1.452031 
H 	 -6.625705 	 -1.807080 	 5.739554 
H 	 7.039080 	 -1.290002 	 6.500738 
H 	 -2.254051 	 -2.515402 	 -4.369923 
H 	 -2.564726 	 -3.615387 	 -3.244146 
H 	 -1.141794 	 5.086439 	 7.213318 
H 	 -1.852546 	 4.877240 	 -6.320098 
H 	 -4.956745 	 0.332155 	 -5.849619 
H 	 -3.471682 	 0.968259 	 -5.809657 
H 	 -7.079475 	 -2.194453 	 -1.873214 
H 	 6.850674 	 -3.366187 	 -1.691757 
H 	 3.276703 	 -7.205871 	 -5.086237 
H 	 2.967333 	 6.195054 	 -5.069116 
H 	 5.889115 	 -3.807513 	 1.855474 
H 	 6.313558 	 -3.300236 	 0.389561 
H 	 6.497981 	 -6.258825 	 0.209908 
H 	 6.690076 	 7.150523 	 0.243375 
H 	 -7.611153 	 -2.801264 	 3.253916 
H 	 6.282123 	 -3.786995 	 4.035636 
H 	 2.053023 	 2.289580 	 -0.288788 
H 	 1.060656 	 1.111707 	 -0.513274 
H 	 4.652666 	 -5.120729 	 -1.053213 
H 	 5.767261 	 -5.946252 	 -1.812230 
H 	 5.376856 	 1.438022 	 -5.605714 
H 	 6.110676 	 1.757473 	 -4.264093 
H 	 -1.430504 	 2.791417 	 6.639039 
H 	 -2.467971 	 3.726129 	 6.271024 
H 	 -5.815155 	 -4.874632 	 1.271542 
H 	 -5.749820 	 -4.599945 	 -0.311986 
H 	 6.070230 	 1.895721 	 -2.191080 
H 	 6.654855 	 3.378441 	 -2.497498 
H 	 2.907087 	 7.118951 	 -2.740621 
H 	 2.735965 	 -6.878179 	 -1.573717 
H 	 6.309076 	 -6.032210 	 -4.314201 
H 	 5.412367 	 -5.185106 	 -5.221644 
H 	 2.976381 	 -2.532221 	 -1.537467 
H 	 2.586164 	 -3.972648 	 -1.020119 
H 	 -2.038722 	 -3.989468 	 5.920793 
H 	 -1.361993 	 -2.616751 	 5.226615 
H 	 -0.212802 	 -5.504395 	 -6.322544 
H 	 0.171998 	 -5.097427 	 -4.843007 
H 	 -0.666496 	 1.808506 	 -6.302500 
H 	 0.173165 	 1.253776 	 7.351389 
H 	 -1.128496 	 6.217152 	 -3.318476 
H 	 -1.614634 	 6.714333 	 -4.748787 
H 	 0.177995 	 -0.156605 	 -3.919684 
H 	 0.663346 	 0.005093 	 -5.329861 
H 	 -2.318159 	 -4.506924 	 -0.766354 
H 	 -0.957570 	 -4.807226 	 -0.035323 
H 	 2.984858 	 -0.182872 	 0.286790 
H 	 -0.980769 	 -1.135599 	 3.479041 
H 	 -4.206642 	 6.501805 	 -4.533385 
H 	 -4.675942 	 4.964882 	 -4.497898 
H 	 6.523846 	 6.166694 	 -2.958034 
H 	 5.373425 	 6.838950 	 -3.836014 
H 	 4.487953 	 -1.416113 	 -6.931629 
H 	 4.516517 	 -1.424427 	 6.341807 
H 	 0.749721 	 4.997205 	 2.047922 
H 	 0.828122 	 5.412249 	 0.472160 
H 	 -0.489376 	 -0.229172 	 4.711820 
O 	 -5.776412 	 4.946742 	 0.492418 
O 	 6.085923 	 1.249018 	 5.416372 
O 	 -3.993709 	 4.111008 	 7.097102 
O 	 7.044835 	 4.919588 	 -1.554790 
O 	 -4.911580 	 3.241575 	 -4.508486 
O 	 -6.824253 	 2.562787 	 -6.551492 
O 	 -2.546545 	 0.748249 	 -1.030527 
O 	 -4.808880 	 -3.788956 	 -6.584370 
O 	 -2.633926 	 2.209243 	 3.649816 
O 	 -3.595800 	 -6.075192 	 -5.717515 
O 	 4.635455 	 5.538655 	 -0.047438 
O 	 -2.145611 	 -2.964587 	 -5.979492 
O 	 3.558282 	 -5.718506 	 -5.893720 
O 	 -6.726608 	 -3.073676 	 -4.565172 
O 	 1.122712 	 5.197329 	 3.943590 
O 	 -6.890398 	 5.300119 	 -6.384151 
O 	 4.021250 	 2.105951 	 -7.141331 
O 	 -4.234234 	 -0.583314 	 4.395714 
O 	 -1.450447 	 -1.551091 	 1.870991 
O 	 2.019541 	 -2.372539 	 3.038246 
O 	 -1.023070 	 6.968283 	 2.246346 
O 	 3.004049 	 -5.067368 	 3.166183 
O 	 -6.413573 	 1.954945 	 0.222885 
O 	 -4.099086 	 6.021005 	 -1.372962 
O 	 3.071316 	 0.733825 	 -3.130351 
O 	 1.864497 	 5.640604 	 -6.988760 
O 	 -0.751575 	 -6.612830 	 7.243507 
O 	 1.758328 	 -7.644331 	 1.334100 
O 	 -5.843069 	 -6.301513 	 5.005105 
O 	 -6.785775 	 -0.930578 	 2.580278 
O 	 5.200872 	 4.543584 	 6.823077 
O 	 -6.394505 	 -0.507994 	 -5.314023 
O 	 7.008312 	 3.637981 	 2.664554 
O 	 -5.550898 	 -3.298125 	 5.457303 
O 	 -5.199092 	 1.198632 	 -2.462488 
O 	 5.561013 	 1.728516 	 -0.245023 
O 	 -4.334597 	 0.486567 	 1.325081 
O 	 2.335324 	 1.889382 	 3.344571 
O 	 1.878947 	 -1.210385 	 -5.979748 
O 	 5.853904 	 -4.151832 	 6.343314 
O 	 1.073505 	 -7.080016 	 5.159103 
O 	 5.235174 	 -1.941560 	 -4.487171 
O 	 -3.505228 	 -5.586114 	 -2.986045 
O 	 -7.218408 	 4.914673 	 5.648892 
O 	 1.356119 	 -3.408348 	 6.920895 
O 	 3.281015 	 3.153682 	 0.892235 
O 	 -4.053330 	 6.842012 	 6.052380 
O 	 -2.919006 	 -5.306739 	 6.283106 
O 	 -0.186049 	 -0.224412 	 0.044758 
O 	 -3.277205 	 -2.844176 	 -0.123696 
O 	 -2.371126 	 3.720712 	 -1.804070 
O 	 3.736000 	 -6.008059 	 5.658459 
O 	 5.744532 	 -0.785231 	 1.336557 
O 	 3.293998 	 -5.111270 	 0.099958 
O 	 1.834664 	 0.953846 	 6.140161 
O 	 5.720015 	 6.653796 	 -6.459180 
O 	 -5.278742 	 2.634019 	 3.797313 
O 	 3.950939 	 6.646739 	 2.846690 
O 	 3.945485 	 4.290910 	 4.192652 
O 	 2.928781 	 -1.523160 	 5.554414 
O 	 0.575072 	 -5.957180 	 -3.293457 
O 	 3.019167 	 -3.672715 	 -4.269485 
O 	 7.097196 	 6.996678 	 3.841061 
O 	 -0.618827 	 -5.287934 	 3.535322 
O 	 -2.151444 	 5.530699 	 4.345917 
O 	 0.257087 	 -1.574133 	 -2.891204 
O 	 0.331624 	 5.703906 	 -2.666417 
O 	 -5.124652 	 -1.768771 	 -2.754498 
O 	 -4.953890 	 6.116272 	 2.866929 
O 	 -0.438670 	 1.988155 	 1.826404 
O 	 -1.486849 	 7.187286 	 -0.603304 
O 	 -7.076456 	 -6.018187 	 7.367575 
O 	 -2.608640 	 -0.966805 	 7.037225 
O 	 3.690442 	 3.944771 	 -4.958039 
O 	 -2.537804 	 0.906740 	 -4.182135 
O 	 -2.040700 	 3.472183 	 -5.106105 
O 	 4.098076 	 -1.233067 	 -1.312093 
O 	 5.159212 	 1.710731 	 2.949331 
O 	 -6.252448 	 -5.853443 	 -1.653639 
O 	 0.891628 	 3.217663 	 -3.485610 
O 	 -0.270547 	 -3.759200 	 1.219099 
O 	 -7.171063 	 -0.993245 	 5.861048 
O 	 -2.451815 	 -2.634814 	 -3.379614 
O 	 -1.281303 	 5.478852 	 -6.842478 
O 	 -4.161154 	 0.604868 	 -6.368689 
O 	 6.982651 	 -2.424023 	 -1.465897 
O 	 3.560296 	 6.834468 	 -4.611805 
O 	 5.559716 	 -3.478252 	 0.980598 
O 	 6.812589 	 -6.968002 	 0.801698 
O 	 6.945272 	 -3.714770 	 3.279919 
O 	 1.407988 	 1.941316 	 -0.910461 
O 	 5.594464 	 -5.158588 	 -1.250081 
O 	 6.091544 	 1.100194 	 -5.026307 
O 	 -1.659578 	 3.397822 	 5.913084 
O 	 -5.536300 	 -4.219011 	 0.601089 
O 	 6.460851 	 2.473450 	 -2.864187 
O 	 2.799533 	 7.083500 	 -1.744892 
O 	 6.289513 	 -5.161668 	 -4.804511 
O 	 2.342028 	 -3.285783 	 -1.694886 
O 	 -1.213141 	 -3.550433 	 5.633390 
O 	 0.101995 	 -4.721463 	 -5.761940 
O 	 -0.758205 	 1.389314 	 -7.191740 
O 	 -1.892952 	 6.602519 	 -3.801482 
O 	 0.305596 	 0.549558 	 -4.595672 
O 	 -1.468326 	 -5.055190 	 -0.858918 
O 	 2.361543 	 -0.293081 	 1.040197 
O 	 -4.970127 	 5.915247 	 -4.494338 
O 	 6.245079 	 6.992266 	 -3.418713 
O 	 5.088599 	 -1.482514 	 7.187177 
O 	 0.883767 	 4.661656 	 1.072222 
O 	 -0.562517 	 -1.160209 	 4.393098 
K 	 -5.636917 	 1.512665 	 6.041146 
