333
conformation = 17
H 	 -5.982252 	 4.010972 	 0.792128 
H 	 -5.728741 	 5.389531 	 1.402750 
H 	 5.378785 	 1.262237 	 6.085415 
H 	 6.535250 	 0.424100 	 5.394542 
H 	 -3.835462 	 4.165726 	 -6.663486 
H 	 -4.271818 	 5.018523 	 7.061641 
H 	 6.401237 	 5.043962 	 -0.762014 
H 	 -6.946949 	 5.149253 	 -0.891245 
H 	 -4.982568 	 2.618461 	 -3.785877 
H 	 -5.540597 	 2.884078 	 -5.166174 
H 	 -7.468826 	 2.070511 	 -6.001575 
H 	 -6.901075 	 3.553367 	 -6.434371 
H 	 -1.643269 	 0.400299 	 -0.741076 
H 	 -2.139998 	 1.853135 	 -1.110731 
H 	 -5.401937 	 -3.626141 	 -5.839092 
H 	 -4.045505 	 -3.174026 	 -6.306081 
H 	 -1.916321 	 2.284421 	 2.901153 
H 	 -2.470470 	 2.998686 	 4.254425 
H 	 -3.898721 	 -5.496771 	 -6.287002 
H 	 -2.656018 	 -6.294670 	 -6.008917 
H 	 4.267923 	 5.011455 	 0.377632 
H 	 4.008088 	 6.278064 	 -0.529413 
H 	 -1.368197 	 -3.556571 	 -5.939748 
H 	 -2.076000 	 -2.337140 	 -6.706461 
H 	 3.206701 	 -5.458755 	 -6.734542 
H 	 3.132299 	 -4.917265 	 -5.240064 
H 	 -7.325214 	 -3.940671 	 -4.264813 
H 	 -6.297978 	 -2.867232 	 -3.644795 
H 	 2.177094 	 4.976494 	 4.249392 
H 	 1.118230 	 5.979679 	 4.639802 
H 	 7.270793 	 5.787122 	 -6.407334 
H 	 -6.286378 	 5.633239 	 -5.646038 
H 	 4.152343 	 3.086500 	 7.255583 
H 	 3.318362 	 1.848951 	 7.172798 
H 	 -3.551140 	 -0.677368 	 5.132128 
H 	 -4.685555 	 -1.481167 	 4.651941 
H 	 -0.935920 	 -0.933251 	 0.919440 
H 	 -2.283966 	 -1.785453 	 1.372397 
H 	 0.956864 	 -2.095857 	 3.285473 
H 	 2.095149 	 -1.593173 	 2.246207 
H 	 -1.261547 	 -7.606432 	 1.211515 
H 	 -0.920498 	 -6.919286 	 2.556753 
H 	 2.347417 	 -4.267765 	 3.035190 
H 	 2.557405 	 -5.870231 	 2.804627 
H 	 -6.175702 	 1.547995 	 0.957567 
H 	 -7.463871 	 1.944319 	 0.296206 
H 	 -4.535170 	 5.815233 	 -2.318894 
H 	 -4.585047 	 5.736598 	 -0.717556 
H 	 2.690545 	 0.997087 	 -3.867230 
H 	 2.274180 	 1.188904 	 -2.371053 
H 	 2.101903 	 4.822435 	 -6.685959 
H 	 1.077029 	 5.829862 	 -7.345462 
H 	 -0.155374 	 -6.628452 	 6.500178 
H 	 -0.986329 	 -7.551288 	 -7.397590 
H 	 2.255061 	 6.881407 	 2.092365 
H 	 0.890826 	 -7.492165 	 1.496701 
H 	 -6.357882 	 -6.367155 	 4.287674 
H 	 -6.415509 	 -5.990812 	 5.822431 
H 	 -6.085620 	 -0.791668 	 2.087417 
H 	 -6.473152 	 -0.225017 	 3.393631 
H 	 5.209720 	 5.427214 	 7.363694 
H 	 6.001715 	 4.514968 	 6.480586 
H 	 -6.570892 	 -1.405288 	 -5.490515 
H 	 -7.280355 	 -0.038908 	 -5.302746 
H 	 6.983638 	 3.976664 	 3.596027 
H 	 6.634575 	 3.013979 	 2.441677 
H 	 -5.742468 	 -4.073782 	 5.151973 
H 	 -5.212980 	 -3.388180 	 6.431953 
H 	 -4.568042 	 1.019947 	 -1.862735 
H 	 -6.049601 	 1.345996 	 -1.733877 
H 	 5.411251 	 0.848864 	 -0.057128 
H 	 4.762775 	 2.245752 	 -0.075430 
H 	 -3.963732 	 0.398450 	 2.272075 
H 	 -3.670462 	 0.868873 	 0.697149 
H 	 1.417413 	 1.870506 	 2.932064 
H 	 2.704037 	 1.132169 	 3.020936 
H 	 1.576852 	 -1.526422 	 -5.191989 
H 	 1.590508 	 -1.839609 	 -6.699171 
H 	 5.972348 	 -2.958683 	 6.432125 
H 	 4.984645 	 -4.220331 	 6.327841 
H 	 0.605455 	 -6.199252 	 4.465809 
H 	 1.824730 	 -6.669378 	 5.305218 
H 	 5.364650 	 -0.798433 	 -4.364099 
H 	 5.958336 	 -2.166663 	 -4.168163 
H 	 -3.446688 	 -5.397291 	 -3.949490 
H 	 -3.121357 	 -6.248081 	 -2.933029 
H 	 -6.824304 	 5.299622 	 6.318750 
H 	 -7.374397 	 5.530635 	 4.860353 
H 	 1.479233 	 -3.907984 	 -7.004354 
H 	 0.597812 	 -3.465229 	 6.676700 
H 	 3.545216 	 3.080461 	 1.880281 
H 	 2.417428 	 3.720807 	 0.887099 
H 	 -4.836596 	 -7.525925 	 5.748909 
H 	 -3.679765 	 6.740540 	 5.032685 
H 	 -2.288354 	 -5.973318 	 6.505233 
H 	 -3.637120 	 -5.932145 	 5.885448 
H 	 1.392144 	 -0.278056 	 0.709129 
H 	 0.015759 	 -0.644583 	 -0.811579 
H 	 -3.924384 	 -3.553643 	 0.106478 
H 	 -3.862688 	 -2.254836 	 -0.722846 
H 	 -1.614697 	 4.346922 	 -1.845776 
H 	 -3.094591 	 4.251993 	 -1.538074 
H 	 4.129655 	 -6.818278 	 5.354771 
H 	 3.360561 	 -5.438291 	 4.964904 
H 	 5.383201 	 -1.474788 	 1.260831 
H 	 6.630033 	 -1.019505 	 1.959377 
H 	 3.921327 	 -4.567377 	 0.558448 
H 	 2.668257 	 -5.621274 	 0.710154 
H 	 1.951423 	 0.110583 	 5.886767 
H 	 1.941566 	 1.535833 	 5.141489 
H 	 6.165437 	 -7.362000 	 -6.258325 
H 	 4.910885 	 6.830892 	 -5.731293 
H 	 -5.668367 	 3.126606 	 3.167758 
H 	 -4.232168 	 2.410382 	 3.488357 
H 	 4.034286 	 5.717443 	 2.897066 
H 	 4.476429 	 6.861093 	 1.954009 
H 	 3.527840 	 3.457674 	 4.166433 
H 	 4.250439 	 4.429569 	 5.147668 
H 	 2.805198 	 -1.702513 	 4.574707 
H 	 2.322404 	 -2.301791 	 5.901584 
H 	 0.063461 	 -5.575007 	 -2.633426 
H 	 0.371117 	 -6.946444 	 -3.253210 
H 	 3.723546 	 -2.944265 	 -4.222829 
H 	 2.799807 	 -3.639006 	 -3.307150 
H 	 -7.439281 	 6.783877 	 2.901213 
H 	 6.174908 	 7.063648 	 3.779440 
H 	 -0.892158 	 -4.726435 	 4.161031 
H 	 -0.372155 	 -4.772016 	 2.757890 
H 	 -1.640427 	 6.114203 	 3.483878 
H 	 -1.556075 	 5.146865 	 4.765823 
H 	 -0.605427 	 -2.054008 	 -3.126216 
H 	 0.936224 	 -2.093591 	 -2.724159 
H 	 1.148172 	 6.208642 	 -2.292627 
H 	 0.550630 	 5.164397 	 -3.301548 
H 	 -4.117510 	 -2.044188 	 -3.041145 
H 	 -5.381256 	 -1.007308 	 -3.068203 
H 	 -5.314217 	 6.701210 	 3.591002 
H 	 -4.405269 	 5.508269 	 3.170969 
H 	 -0.829437 	 1.394113 	 1.181241 
H 	 -0.253173 	 2.818641 	 1.339057 
H 	 -2.338448 	 6.768149 	 -0.886288 
H 	 -1.670107 	 -6.664254 	 -0.686282 
H 	 7.213326 	 -5.253005 	 7.360277 
H 	 -6.292077 	 -5.511533 	 -6.925433 
H 	 -2.083701 	 -0.147673 	 6.997904 
H 	 -3.412309 	 -0.425728 	 -7.296575 
H 	 3.827242 	 3.119856 	 -5.544690 
H 	 3.534605 	 3.694105 	 -4.060602 
H 	 -1.569005 	 0.743102 	 -4.243521 
H 	 -2.760461 	 0.974361 	 -3.247689 
H 	 -1.444365 	 3.244816 	 -4.412333 
H 	 -2.794641 	 2.939155 	 -5.107358 
H 	 4.973243 	 -1.488615 	 -1.316783 
H 	 3.950574 	 -0.438893 	 -1.920827 
H 	 5.134347 	 0.782153 	 2.478270 
H 	 5.443978 	 1.519579 	 3.910726 
H 	 -5.381263 	 -5.843741 	 -2.307948 
H 	 -5.799509 	 -6.635436 	 -1.196120 
H 	 0.902183 	 3.024415 	 -2.471409 
H 	 1.000149 	 2.283702 	 -3.863873 
H 	 -0.780921 	 -2.841783 	 1.477098 
H 	 0.580006 	 -3.581422 	 1.174455 
H 	 -6.716182 	 -1.631189 	 5.802828 
H 	 7.255805 	 -1.026161 	 6.878751 
H 	 -2.433753 	 -2.644536 	 -4.290964 
H 	 -2.548667 	 -3.429610 	 -2.878486 
H 	 -1.435628 	 4.816484 	 7.465416 
H 	 -1.145638 	 5.255264 	 -5.970963 
H 	 -5.019481 	 0.080035 	 -6.284412 
H 	 -3.729700 	 0.513590 	 -5.557131 
H 	 -7.035897 	 -2.201750 	 -1.256410 
H 	 6.938925 	 -3.403956 	 -1.691333 
H 	 3.142453 	 -7.325346 	 -5.193264 
H 	 2.976559 	 6.094392 	 -5.191157 
H 	 6.007724 	 -3.500854 	 1.674850 
H 	 6.036556 	 -3.275458 	 0.087331 
H 	 6.368452 	 -6.601070 	 0.160437 
H 	 6.582598 	 6.901586 	 0.782478 
H 	 -7.271902 	 -2.863287 	 3.204700 
H 	 6.675920 	 -3.578138 	 4.182853 
H 	 2.183157 	 2.199754 	 -0.328288 
H 	 0.810183 	 1.498569 	 -0.329370 
H 	 4.769586 	 -5.606403 	 -1.164402 
H 	 5.985052 	 -5.592674 	 -2.209801 
H 	 5.251167 	 1.418468 	 -5.663785 
H 	 6.025582 	 1.724208 	 -4.313392 
H 	 -1.421850 	 2.691447 	 6.350476 
H 	 -2.674790 	 3.523971 	 6.437104 
H 	 -5.528240 	 -4.896189 	 1.170978 
H 	 -5.966248 	 -4.501800 	 -0.323168 
H 	 6.160007 	 2.220896 	 -1.933083 
H 	 6.703602 	 3.397061 	 -2.896615 
H 	 3.405252 	 -7.396180 	 -2.434409 
H 	 2.574390 	 -6.938552 	 -1.233078 
H 	 6.380045 	 -6.019817 	 -4.426809 
H 	 5.323103 	 -5.259897 	 -5.177444 
H 	 2.999172 	 -2.423708 	 -1.462900 
H 	 2.403061 	 -3.839916 	 -1.035535 
H 	 -2.047630 	 -3.807065 	 5.917529 
H 	 -1.239539 	 -2.542623 	 5.326263 
H 	 -0.238392 	 -5.426510 	 -6.399312 
H 	 0.284392 	 -5.107879 	 -4.981694 
H 	 -0.719013 	 1.485592 	 -6.307812 
H 	 0.263302 	 1.365570 	 7.325159 
H 	 -1.253629 	 6.429601 	 -3.355511 
H 	 -1.522043 	 6.559870 	 -4.835400 
H 	 0.456391 	 0.016486 	 -3.927922 
H 	 0.707226 	 0.268151 	 -5.455763 
H 	 -2.228923 	 -4.312709 	 -1.157805 
H 	 -1.015795 	 -4.368379 	 -0.125986 
H 	 3.046524 	 -0.327160 	 0.616968 
H 	 -1.029953 	 -0.901549 	 3.493004 
H 	 -4.154389 	 6.412031 	 -4.678527 
H 	 -4.880530 	 5.020866 	 -4.434647 
H 	 6.787793 	 6.738169 	 -2.846018 
H 	 5.602692 	 6.495464 	 -3.833670 
H 	 5.035771 	 -1.584834 	 -6.724929 
H 	 4.248680 	 -1.411325 	 6.757680 
H 	 0.845542 	 5.176169 	 1.957143 
H 	 0.668719 	 5.301706 	 0.397816 
H 	 -0.088367 	 -0.356432 	 4.647269 
O 	 -5.775548 	 4.941425 	 0.507089 
O 	 6.029923 	 1.228482 	 5.315188 
O 	 -4.073203 	 4.102781 	 7.324866 
O 	 7.153559 	 5.009056 	 -1.413026 
O 	 -4.829317 	 3.205399 	 -4.556225 
O 	 -6.806438 	 2.576518 	 -6.548186 
O 	 -2.459890 	 0.931417 	 -1.078798 
O 	 -4.803494 	 -3.672104 	 -6.610228 
O 	 -2.581834 	 2.272278 	 3.657152 
O 	 -3.535443 	 -6.134868 	 -5.620395 
O 	 4.695692 	 5.745643 	 -0.076528 
O 	 -2.139616 	 -2.898237 	 -5.921823 
O 	 3.471905 	 -5.685282 	 -5.846954 
O 	 -6.731522 	 -3.196264 	 -4.453951 
O 	 1.232900 	 5.136794 	 4.113258 
O 	 -6.827445 	 5.256229 	 -6.393134 
O 	 4.013853 	 2.217520 	 -7.194737 
O 	 -4.278856 	 -0.598490 	 4.449681 
O 	 -1.442579 	 -1.459959 	 1.740808 
O 	 1.855275 	 -2.325184 	 2.980544 
O 	 -0.919107 	 7.098383 	 2.110223 
O 	 3.019216 	 -5.025996 	 2.999115 
O 	 -6.469763 	 1.988400 	 0.173495 
O 	 -4.133213 	 6.140556 	 -1.474930 
O 	 2.971321 	 0.805813 	 -2.966502 
O 	 1.955357 	 5.742291 	 -6.972884 
O 	 -0.766633 	 -6.600627 	 7.281119 
O 	 1.846101 	 -7.536328 	 1.336121 
O 	 -5.779612 	 -6.142585 	 5.026349 
O 	 -6.744402 	 -0.938284 	 2.780799 
O 	 5.094791 	 4.581948 	 6.841471 
O 	 -6.358930 	 -0.457740 	 -5.334738 
O 	 7.210663 	 3.784258 	 2.674670 
O 	 -5.469209 	 -3.223857 	 5.528195 
O 	 -5.330040 	 1.171879 	 -2.426133 
O 	 5.557055 	 1.731863 	 -0.255244 
O 	 -4.337354 	 0.501073 	 1.336490 
O 	 2.219193 	 1.820576 	 3.500822 
O 	 1.976284 	 -1.206409 	 -6.008752 
O 	 5.939065 	 -3.952005 	 6.365286 
O 	 0.912008 	 -6.936447 	 5.067167 
O 	 5.180364 	 -1.744677 	 -4.504272 
O 	 -3.492667 	 -5.366463 	 -2.985016 
O 	 -7.259537 	 4.849890 	 5.562447 
O 	 1.525180 	 -3.419952 	 7.014164 
O 	 3.261034 	 3.212605 	 0.996317 
O 	 -4.023728 	 6.861148 	 5.935510 
O 	 -2.985843 	 -5.308004 	 6.247278 
O 	 -0.134024 	 -0.178494 	 0.033939 
O 	 -3.320136 	 -2.805613 	 -0.158616 
O 	 -2.318078 	 3.675741 	 -1.739639 
O 	 3.711677 	 -5.966374 	 5.724588 
O 	 5.874539 	 -0.679171 	 1.362113 
O 	 3.221596 	 -5.067608 	 0.097667 
O 	 1.765312 	 1.074311 	 6.062658 
O 	 5.622878 	 6.782599 	 -6.415719 
O 	 -5.195440 	 2.566955 	 3.736085 
O 	 4.078199 	 6.694394 	 2.839925 
O 	 3.968651 	 4.310416 	 4.217728 
O 	 2.840266 	 -1.529870 	 5.532875 
O 	 0.514895 	 -5.996204 	 -3.383790 
O 	 3.050898 	 -3.662620 	 -4.257441 
O 	 7.150003 	 7.135547 	 3.749197 
O 	 -0.621918 	 -5.364387 	 3.497224 
O 	 -2.171567 	 5.676317 	 4.171474 
O 	 0.190128 	 -1.469560 	 -2.906802 
O 	 0.318367 	 5.810442 	 -2.627410 
O 	 -5.065019 	 -1.920165 	 -2.838316 
O 	 -4.996882 	 6.193786 	 2.787583 
O 	 -0.568936 	 2.051493 	 1.875526 
O 	 -1.543061 	 7.267908 	 -0.552828 
O 	 -6.986762 	 -5.974649 	 7.394672 
O 	 -2.732685 	 -0.891077 	 6.998290 
O 	 3.807406 	 3.925035 	 -4.972341 
O 	 -2.520663 	 0.911259 	 -4.215496 
O 	 -2.034391 	 3.570310 	 -5.111581 
O 	 4.090242 	 -1.124354 	 -1.207773 
O 	 5.172175 	 1.689440 	 2.914126 
O 	 -6.126792 	 -5.807529 	 -1.694176 
O 	 0.965873 	 3.208361 	 -3.468633 
O 	 -0.389315 	 -3.755941 	 1.223429 
O 	 -7.221339 	 -0.808313 	 6.048713 
O 	 -2.336390 	 -2.556438 	 -3.288150 
O 	 -1.294075 	 5.595122 	 -6.863169 
O 	 -4.216720 	 0.641655 	 -6.352256 
O 	 6.897175 	 -2.436353 	 -1.516900 
O 	 3.483750 	 6.768475 	 -4.740173 
O 	 5.460011 	 -3.442740 	 0.850944 
O 	 6.935338 	 -7.071145 	 0.835164 
O 	 7.029011 	 -3.626052 	 3.299816 
O 	 1.384559 	 2.058743 	 -0.877917 
O 	 5.683471 	 -5.322722 	 -1.317452 
O 	 6.000877 	 1.129131 	 -5.106807 
O 	 -1.837917 	 3.544596 	 6.029423 
O 	 -5.541025 	 -4.139157 	 0.541559 
O 	 6.535548 	 2.461530 	 -2.844282 
O 	 2.928338 	 7.104324 	 -1.645475 
O 	 6.248561 	 -5.155778 	 -4.859167 
O 	 2.319127 	 -3.124428 	 -1.689870 
O 	 -1.154048 	 -3.454436 	 5.642981 
O 	 -0.011539 	 -4.654870 	 -5.787668 
O 	 -0.714593 	 1.423623 	 -7.275244 
O 	 -1.894784 	 6.695737 	 -3.983850 
O 	 0.339562 	 0.694762 	 -4.659676 
O 	 -1.574605 	 -4.925775 	 -0.779331 
O 	 2.288415 	 -0.291753 	 1.226372 
O 	 -5.018086 	 6.000670 	 -4.485286 
O 	 6.228674 	 7.142093 	 -3.529849 
O 	 5.114518 	 -1.443209 	 7.189964 
O 	 0.812613 	 4.665081 	 1.130495 
O 	 -0.437771 	 -1.159053 	 4.265670 
K 	 -5.601111 	 1.591483 	 6.036718 
