333
conformation = 1
H 	 2.329152 	 13.873910 	 1.584589 
H 	 3.074598 	 0.314286 	 2.272432 
H 	 13.939295 	 11.274110 	 6.975716 
H 	 14.707513 	 10.060379 	 6.511828 
H 	 4.790407 	 14.066112 	 9.287333 
H 	 4.491616 	 14.746867 	 7.892827 
H 	 0.000000 	 0.000000 	 0.000000 
H 	 1.479388 	 0.071054 	 0.327580 
H 	 3.554530 	 12.370857 	 12.038313 
H 	 3.141334 	 12.785561 	 10.565234 
H 	 1.096447 	 12.047322 	 9.916382 
H 	 1.594658 	 13.347541 	 9.288694 
H 	 6.994244 	 10.325902 	 14.878807 
H 	 6.334091 	 11.786340 	 14.592734 
H 	 3.116911 	 6.466491 	 9.958334 
H 	 4.624995 	 6.425472 	 9.491584 
H 	 6.765649 	 12.062140 	 3.946432 
H 	 6.356902 	 12.684161 	 5.230942 
H 	 4.667477 	 4.225857 	 9.593138 
H 	 5.906595 	 3.354709 	 9.883422 
H 	 12.920691 	 14.834041 	 1.294019 
H 	 12.605735 	 1.100953 	 0.313938 
H 	 7.080184 	 6.180385 	 9.871555 
H 	 6.596918 	 7.535614 	 9.187843 
H 	 11.885709 	 4.274593 	 9.080155 
H 	 11.629562 	 4.921001 	 10.595787 
H 	 1.222963 	 5.736327 	 11.350172 
H 	 2.262168 	 6.641265 	 12.283228 
H 	 10.774868 	 14.824591 	 5.417494 
H 	 9.519556 	 0.858344 	 5.435538 
H 	 0.852696 	 0.399563 	 9.535169 
H 	 2.225515 	 0.483530 	 10.219988 
H 	 12.911926 	 12.867376 	 8.256678 
H 	 11.805488 	 11.618972 	 8.160904 
H 	 4.938787 	 9.020906 	 6.140984 
H 	 3.671156 	 8.411781 	 5.539243 
H 	 7.698311 	 8.927131 	 2.004234 
H 	 6.296972 	 8.291060 	 2.121387 
H 	 9.534621 	 7.848165 	 4.349349 
H 	 10.594766 	 8.267049 	 3.257928 
H 	 7.200424 	 2.140309 	 2.137964 
H 	 7.524708 	 2.839443 	 3.556278 
H 	 10.943867 	 5.522378 	 3.893669 
H 	 11.067754 	 4.025649 	 3.686133 
H 	 2.570042 	 11.429183 	 1.790638 
H 	 1.096846 	 11.806911 	 1.227689 
H 	 4.042738 	 0.975321 	 13.442901 
H 	 3.800827 	 0.583829 	 14.898818 
H 	 11.334778 	 10.946190 	 12.073696 
H 	 10.850104 	 11.004233 	 13.557229 
H 	 10.820943 	 14.598304 	 8.955175 
H 	 9.590727 	 0.571387 	 8.805937 
H 	 8.411318 	 3.001039 	 7.453201 
H 	 7.513501 	 2.227689 	 8.551730 
H 	 10.976918 	 1.796238 	 2.894510 
H 	 9.499178 	 2.177771 	 2.512857 
H 	 2.189874 	 3.444613 	 5.256666 
H 	 2.175741 	 3.817214 	 6.762296 
H 	 2.453606 	 9.072637 	 3.050087 
H 	 2.150997 	 9.515759 	 4.480331 
H 	 13.623458 	 0.325714 	 8.203858 
H 	 14.512424 	 14.118658 	 7.488848 
H 	 2.025575 	 8.374216 	 10.408732 
H 	 1.289514 	 9.825102 	 10.350475 
H 	 0.650415 	 13.889953 	 4.524633 
H 	 0.341460 	 12.941746 	 3.397616 
H 	 3.263220 	 5.735304 	 6.188300 
H 	 3.520006 	 6.532480 	 7.425423 
H 	 3.893435 	 10.935244 	 14.174601 
H 	 2.371862 	 11.320051 	 13.918353 
H 	 13.995407 	 10.594181 	 0.922632 
H 	 13.373083 	 11.962197 	 1.151388 
H 	 4.589115 	 10.501211 	 3.200233 
H 	 4.986648 	 10.465179 	 1.707878 
H 	 9.914154 	 11.557012 	 3.948375 
H 	 11.427625 	 11.112079 	 4.072585 
H 	 10.165703 	 8.225768 	 10.713077 
H 	 10.295843 	 7.912000 	 9.155604 
H 	 14.329784 	 6.905912 	 7.498563 
H 	 13.692997 	 5.537852 	 7.343436 
H 	 8.968131 	 3.368175 	 5.262486 
H 	 10.212773 	 3.434110 	 6.286449 
H 	 13.828788 	 9.089532 	 11.394169 
H 	 14.600800 	 7.753342 	 11.629372 
H 	 4.838444 	 4.577940 	 11.901255 
H 	 5.542146 	 3.689332 	 12.947338 
H 	 1.729618 	 0.059322 	 7.253162 
H 	 1.205793 	 0.512863 	 5.920685 
H 	 10.103408 	 5.714991 	 8.811686 
H 	 9.253042 	 6.251099 	 7.634087 
H 	 12.088322 	 12.776429 	 2.880838 
H 	 11.025270 	 13.578634 	 2.225696 
H 	 3.692739 	 2.213114 	 6.705605 
H 	 5.084390 	 1.523361 	 6.002827 
H 	 6.210825 	 3.991497 	 7.723750 
H 	 5.022434 	 3.889809 	 6.641549 
H 	 9.921450 	 9.574195 	 1.760740 
H 	 8.644626 	 9.033035 	 0.232583 
H 	 4.674013 	 6.442710 	 1.415620 
H 	 4.487405 	 7.536374 	 0.384918 
H 	 7.031046 	 14.072881 	 14.027353 
H 	 5.592928 	 13.977412 	 14.610496 
H 	 12.793139 	 3.247611 	 6.181080 
H 	 12.190590 	 4.481490 	 5.938926 
H 	 14.086674 	 8.285549 	 2.241022 
H 	 0.415914 	 9.132290 	 2.765707 
H 	 12.450879 	 5.247027 	 1.557705 
H 	 11.392104 	 4.208904 	 1.805191 
H 	 10.623794 	 9.983799 	 7.036437 
H 	 10.250124 	 11.097734 	 5.949757 
H 	 14.747599 	 2.505341 	 9.575448 
H 	 13.463436 	 1.691996 	 10.183967 
H 	 2.823278 	 12.847837 	 4.016770 
H 	 4.320519 	 12.493994 	 4.349436 
H 	 12.797900 	 0.659044 	 4.040291 
H 	 12.966758 	 1.701876 	 2.828179 
H 	 12.304536 	 13.129806 	 5.257375 
H 	 12.894657 	 14.327275 	 6.096827 
H 	 11.403794 	 8.119255 	 5.521791 
H 	 10.905193 	 7.421062 	 6.837234 
H 	 8.290126 	 4.085456 	 13.020246 
H 	 8.929909 	 2.809704 	 12.550811 
H 	 12.268174 	 6.824867 	 11.437171 
H 	 11.382021 	 6.126293 	 12.575640 
H 	 1.163802 	 1.746479 	 3.803733 
H 	 14.801304 	 2.207752 	 4.279734 
H 	 7.766716 	 4.990814 	 5.196522 
H 	 8.162140 	 4.971290 	 3.652553 
H 	 6.858949 	 1.320071 	 4.521691 
H 	 7.023950 	 0.069923 	 5.414760 
H 	 7.919037 	 7.821348 	 12.720865 
H 	 9.364390 	 7.822238 	 13.492299 
H 	 9.784155 	 1.124363 	 13.473079 
H 	 9.147900 	 0.282923 	 12.426985 
H 	 4.426326 	 7.768549 	 12.617086 
H 	 3.260735 	 8.703164 	 12.699795 
H 	 3.212688 	 1.525379 	 4.556444 
H 	 4.202897 	 0.475191 	 4.061314 
H 	 7.803368 	 11.228540 	 2.095948 
H 	 8.312760 	 12.737204 	 2.430898 
H 	 6.132600 	 1.870942 	 0.099245 
H 	 6.809579 	 3.139416 	 0.419289 
H 	 0.843472 	 4.444064 	 8.247954 
H 	 2.234812 	 4.261478 	 9.039736 
H 	 6.492321 	 9.670977 	 7.853609 
H 	 5.172588 	 9.317407 	 8.589157 
H 	 12.315707 	 12.958358 	 10.237926 
H 	 12.075857 	 13.286761 	 11.729141 
H 	 6.954288 	 10.337377 	 11.444824 
H 	 5.956083 	 10.588877 	 12.626226 
H 	 7.174255 	 13.119896 	 11.451113 
H 	 5.834727 	 12.756239 	 10.795434 
H 	 13.524757 	 8.353555 	 14.600366 
H 	 12.587604 	 9.428344 	 13.978420 
H 	 14.242257 	 10.720960 	 3.458038 
H 	 13.945755 	 11.390544 	 4.793350 
H 	 3.311663 	 4.363372 	 13.659147 
H 	 2.675397 	 3.104315 	 14.522581 
H 	 9.643686 	 12.868973 	 13.380295 
H 	 9.350025 	 12.119310 	 11.989231 
H 	 7.807835 	 6.909826 	 2.474725 
H 	 9.052522 	 6.242593 	 1.816832 
H 	 1.782001 	 8.183702 	 6.893368 
H 	 0.762598 	 8.830043 	 7.855363 
H 	 6.312581 	 7.195064 	 11.648336 
H 	 6.261670 	 6.338566 	 12.882747 
H 	 6.928909 	 14.793003 	 8.310889 
H 	 7.524311 	 14.799757 	 9.695124 
H 	 3.457450 	 10.008371 	 9.809688 
H 	 4.830671 	 10.440538 	 10.326693 
H 	 1.341496 	 7.520194 	 14.801823 
H 	 0.544417 	 6.375838 	 14.058557 
H 	 11.734603 	 2.437144 	 10.618791 
H 	 11.578984 	 0.850225 	 10.672554 
H 	 14.616358 	 6.196809 	 2.472244 
H 	 14.396338 	 6.403915 	 0.901555 
H 	 0.272725 	 3.236001 	 1.101358 
H 	 0.153775 	 1.810340 	 1.650067 
H 	 1.451480 	 6.876947 	 4.213904 
H 	 0.582372 	 6.074939 	 5.215066 
H 	 10.573464 	 11.834040 	 0.859236 
H 	 9.277285 	 11.189894 	 0.227563 
H 	 13.352953 	 4.204750 	 14.592616 
H 	 14.471132 	 3.983269 	 13.593907 
H 	 13.794361 	 11.187552 	 10.117873 
H 	 14.507442 	 11.465364 	 11.556793 
H 	 7.166050 	 12.570414 	 7.255602 
H 	 5.785705 	 13.299308 	 7.463087 
H 	 3.110709 	 5.057049 	 2.188418 
H 	 2.806948 	 5.021555 	 0.695175 
H 	 14.748654 	 12.143984 	 13.928982 
H 	 0.668597 	 13.125400 	 13.068088 
H 	 11.916860 	 2.283202 	 13.398803 
H 	 11.218986 	 2.739680 	 14.819483 
H 	 0.069845 	 3.696588 	 11.248212 
H 	 13.868951 	 4.616051 	 10.626580 
H 	 11.544178 	 7.392510 	 14.488887 
H 	 10.938930 	 6.008893 	 14.790741 
H 	 6.608445 	 6.081067 	 7.014065 
H 	 7.360194 	 7.258871 	 6.318191 
H 	 8.295299 	 4.358720 	 9.487139 
H 	 8.735007 	 4.793296 	 10.897984 
H 	 7.746827 	 11.463946 	 9.426552 
H 	 8.826342 	 11.091255 	 8.270145 
H 	 7.291889 	 1.419875 	 12.441015 
H 	 7.080345 	 1.532855 	 10.931597 
H 	 8.914714 	 9.769006 	 11.849135 
H 	 9.526368 	 10.137587 	 10.498965 
H 	 6.271564 	 5.485753 	 14.783859 
H 	 7.365194 	 5.439346 	 0.931227 
H 	 11.338129 	 8.962415 	 1.644083 
H 	 7.665359 	 8.824923 	 4.346948 
H 	 4.429020 	 1.226124 	 11.099748 
H 	 3.683670 	 14.848707 	 11.465649 
H 	 0.523980 	 1.849643 	 12.981654 
H 	 14.370307 	 1.230213 	 12.139016 
H 	 13.618260 	 8.132980 	 9.100917 
H 	 12.813573 	 8.453712 	 7.914608 
H 	 9.318631 	 14.792495 	 2.977779 
H 	 9.162382 	 0.206864 	 1.441024 
H 	 8.540654 	 9.514029 	 5.475439 
O 	 2.807947 	 14.703566 	 1.459549 
O 	 14.585706 	 11.004225 	 6.269869 
O 	 4.417173 	 13.894819 	 8.398142 
O 	 0.866607 	 14.866363 	 14.477512 
O 	 3.770546 	 12.957361 	 11.282153 
O 	 1.769642 	 12.361764 	 9.322600 
O 	 6.137264 	 10.828319 	 14.760882 
O 	 3.725171 	 6.168359 	 9.243079 
O 	 5.995884 	 12.080585 	 4.596066 
O 	 5.072293 	 3.623852 	 10.266156 
O 	 13.314742 	 0.741899 	 0.907692 
O 	 6.425956 	 6.932227 	 9.946707 
O 	 11.996095 	 4.132987 	 10.029468 
O 	 1.831097 	 6.523696 	 11.424404 
O 	 9.846528 	 14.899113 	 5.146641 
O 	 1.758757 	 0.144273 	 9.432728 
O 	 12.579390 	 12.034959 	 8.619149 
O 	 4.272057 	 9.155723 	 5.447030 
O 	 7.096269 	 8.375847 	 2.612863 
O 	 10.327840 	 7.465760 	 3.894433 
O 	 7.740179 	 2.077809 	 2.968532 
O 	 11.593902 	 4.771863 	 3.899386 
O 	 2.052621 	 11.814926 	 1.101961 
O 	 4.418411 	 1.070964 	 14.332464 
O 	 11.500893 	 10.624992 	 12.981278 
O 	 10.569120 	 0.674104 	 8.873175 
O 	 7.804470 	 3.160544 	 8.249941 
O 	 10.437233 	 2.380640 	 2.287987 
O 	 2.801953 	 3.761360 	 5.969079 
O 	 1.891910 	 8.847258 	 3.842791 
O 	 13.605123 	 14.383850 	 7.762358 
O 	 2.170953 	 9.330459 	 10.493900 
O 	 0.984533 	 13.651657 	 3.633070 
O 	 3.111243 	 6.646699 	 6.518819 
O 	 3.183772 	 10.923921 	 13.471664 
O 	 14.124714 	 11.529218 	 0.668307 
O 	 4.215337 	 10.272819 	 2.319425 
O 	 10.699897 	 11.579367 	 4.508196 
O 	 10.562038 	 8.584775 	 9.836321 
O 	 14.578795 	 5.941439 	 7.304471 
O 	 9.401317 	 2.917735 	 5.995583 
O 	 13.726133 	 8.156645 	 11.332443 
O 	 5.075837 	 4.532473 	 12.840265 
O 	 1.283422 	 14.605370 	 6.472723 
O 	 10.136397 	 6.351628 	 8.033694 
O 	 11.818775 	 13.077655 	 1.972024 
O 	 4.539964 	 1.721740 	 6.848566 
O 	 5.528485 	 4.484073 	 7.189611 
O 	 8.478334 	 9.653106 	 0.963709 
O 	 5.233114 	 7.008537 	 0.753339 
O 	 6.291293 	 13.449592 	 14.150118 
O 	 12.227468 	 3.828152 	 6.705255 
O 	 14.440609 	 9.186696 	 2.320004 
O 	 11.727342 	 4.732404 	 1.032542 
O 	 10.289892 	 10.931425 	 7.000203 
O 	 14.150122 	 1.755450 	 9.443040 
O 	 3.397962 	 12.316011 	 4.631945 
O 	 12.745662 	 1.627082 	 3.796580 
O 	 12.518616 	 14.084992 	 5.201311 
O 	 11.351077 	 8.254603 	 6.474153 
O 	 9.075502 	 3.783114 	 12.457383 
O 	 11.624671 	 6.163332 	 11.611088 
O 	 0.823701 	 2.051545 	 4.660425 
O 	 7.963716 	 4.416000 	 4.427074 
O 	 6.361344 	 0.642767 	 5.019662 
O 	 8.743968 	 8.379946 	 12.929182 
O 	 8.915264 	 0.733082 	 13.251092 
O 	 3.534332 	 7.813313 	 13.016034 
O 	 3.553658 	 1.125659 	 3.724153 
O 	 7.950801 	 11.885436 	 2.838217 
O 	 6.989642 	 2.179021 	 0.427054 
O 	 1.602472 	 3.849664 	 8.383735 
O 	 5.800203 	 8.949952 	 7.911187 
O 	 12.431600 	 13.713633 	 10.882271 
O 	 6.044205 	 10.687300 	 11.655274 
O 	 6.564508 	 13.396221 	 10.734413 
O 	 12.663283 	 8.740406 	 14.706944 
O 	 13.706207 	 11.457631 	 3.795439 
O 	 2.516850 	 3.995219 	 14.117829 
O 	 9.564243 	 12.993159 	 12.409453 
O 	 8.192362 	 6.025337 	 2.225768 
O 	 1.364974 	 9.057819 	 7.098529 
O 	 6.262171 	 7.268704 	 12.632582 
O 	 7.314123 	 0.555612 	 8.980392 
O 	 4.315722 	 10.423385 	 9.486593 
O 	 0.530211 	 7.332312 	 14.307050 
O 	 12.008957 	 1.643600 	 11.076649 
O 	 13.942915 	 6.365211 	 1.782682 
O 	 0.659113 	 2.633679 	 1.802745 
O 	 0.743292 	 6.212699 	 4.271868 
O 	 9.943551 	 11.907789 	 0.075950 
O 	 14.340814 	 4.362050 	 14.469674 
O 	 14.515683 	 10.904641 	 10.707134 
O 	 6.646363 	 13.415310 	 7.080136 
O 	 2.980734 	 5.668229 	 1.460440 
O 	 0.235143 	 12.239326 	 13.014026 
O 	 11.549438 	 2.017015 	 14.250288 
O 	 14.789880 	 4.598211 	 10.990374 
O 	 10.850336 	 6.743319 	 14.158836 
O 	 7.474451 	 6.374111 	 6.599860 
O 	 8.508229 	 5.164221 	 10.026550 
O 	 7.879151 	 11.211625 	 8.486472 
O 	 6.631195 	 1.668043 	 11.777996 
O 	 8.944758 	 10.547936 	 11.182281 
O 	 6.968782 	 4.908239 	 0.153748 
O 	 10.826167 	 9.505522 	 2.293794 
O 	 3.534524 	 0.922182 	 11.405792 
O 	 14.788695 	 2.120744 	 12.296031 
O 	 13.715194 	 8.379586 	 8.183918 
O 	 9.336935 	 14.403012 	 2.113022 
O 	 8.195881 	 8.639955 	 5.155009 
K 	 2.985812 	 11.430281 	 7.011442 
