333
conformation = 57
H 	 2.789472 	 -6.503924 	 0.353957 
H 	 2.960626 	 -5.205344 	 1.288800 
H 	 -0.713802 	 5.435775 	 6.045784 
H 	 0.427864 	 4.835810 	 5.205418 
H 	 4.495141 	 -6.573834 	 -7.036430 
H 	 4.529020 	 -5.375958 	 6.758447 
H 	 -0.011935 	 -5.386077 	 -1.202530 
H 	 1.464051 	 -5.717213 	 -0.996124 
H 	 3.645653 	 7.093680 	 -3.836838 
H 	 3.155410 	 -7.617155 	 -5.327851 
H 	 1.134276 	 6.512149 	 -6.290163 
H 	 1.731952 	 -6.912448 	 -6.653279 
H 	 7.018198 	 4.885815 	 -0.797252 
H 	 6.150290 	 6.150892 	 -1.256455 
H 	 3.348344 	 1.050047 	 -5.975236 
H 	 4.803493 	 0.863055 	 -6.430487 
H 	 6.759632 	 6.539650 	 2.878386 
H 	 6.464425 	 6.960291 	 4.368525 
H 	 4.752704 	 -0.855929 	 -6.356819 
H 	 5.937086 	 -1.743973 	 -6.277061 
H 	 -2.037132 	 -5.800744 	 0.077372 
H 	 -2.134545 	 -4.432491 	 -0.821242 
H 	 7.349591 	 0.955388 	 -6.318276 
H 	 6.554917 	 2.218911 	 -6.808017 
H 	 -2.978855 	 -1.209151 	 -6.940272 
H 	 -3.099684 	 -0.555157 	 -5.516928 
H 	 1.453373 	 0.539955 	 -4.453958 
H 	 2.547959 	 1.575766 	 -3.922660 
H 	 -4.166279 	 -5.515664 	 3.949488 
H 	 -5.147713 	 -4.315179 	 3.986148 
H 	 0.986199 	 -4.742925 	 -6.115077 
H 	 2.530084 	 -4.783739 	 -5.978457 
H 	 -1.726644 	 -7.604620 	 7.168164 
H 	 -3.067760 	 6.395604 	 7.109817 
H 	 5.250657 	 4.080429 	 4.745606 
H 	 4.424859 	 2.904733 	 4.457071 
H 	 -7.154658 	 3.491608 	 1.068880 
H 	 6.336818 	 2.847076 	 1.361470 
H 	 -5.013921 	 2.488819 	 3.239819 
H 	 -3.860797 	 2.667021 	 2.227106 
H 	 7.302051 	 -3.453362 	 1.174123 
H 	 7.219490 	 -2.769948 	 2.620735 
H 	 -3.555190 	 0.256191 	 2.977183 
H 	 -3.862928 	 -1.216998 	 2.694314 
H 	 2.618323 	 5.638335 	 0.615538 
H 	 1.309661 	 6.314740 	 0.168640 
H 	 4.053962 	 -4.157391 	 -2.243727 
H 	 3.953741 	 -4.786254 	 -0.765187 
H 	 -3.756507 	 4.756797 	 -3.940577 
H 	 -3.666517 	 5.548207 	 -2.578457 
H 	 -4.397045 	 -5.682318 	 -6.579977 
H 	 -5.299652 	 -4.646878 	 7.541611 
H 	 -6.225509 	 -2.245446 	 6.447065 
H 	 -7.223316 	 -3.045174 	 7.480063 
H 	 -3.768071 	 -3.580807 	 1.770371 
H 	 -5.350784 	 -3.285103 	 1.671954 
H 	 2.012242 	 -2.115948 	 4.340359 
H 	 2.450746 	 -1.884656 	 5.788145 
H 	 2.771781 	 3.373858 	 1.971493 
H 	 2.221721 	 4.053055 	 3.149896 
H 	 -1.075251 	 -5.158298 	 7.261266 
H 	 -0.079911 	 -5.893999 	 6.280783 
H 	 1.962886 	 3.077416 	 -5.108297 
H 	 1.571470 	 4.582168 	 -5.204975 
H 	 0.941377 	 -6.806247 	 3.495149 
H 	 0.095681 	 -7.551399 	 2.435650 
H 	 2.678405 	 0.348377 	 4.909240 
H 	 3.382507 	 0.762634 	 6.229806 
H 	 4.391001 	 5.353026 	 -2.236579 
H 	 3.006817 	 6.052959 	 -1.869511 
H 	 -0.558283 	 5.295031 	 0.186778 
H 	 -1.382632 	 6.732475 	 0.012372 
H 	 4.902181 	 4.676320 	 1.941003 
H 	 4.888421 	 4.955998 	 0.376413 
H 	 -4.804221 	 6.613310 	 3.033185 
H 	 -3.800253 	 5.524287 	 2.641958 
H 	 -3.817850 	 2.495135 	 -5.624836 
H 	 -4.549651 	 2.902814 	 -6.994064 
H 	 -0.750431 	 0.883088 	 6.862819 
H 	 -1.035468 	 -0.438514 	 6.092303 
H 	 -5.425038 	 -2.004143 	 4.369511 
H 	 -4.287380 	 -2.216641 	 5.370991 
H 	 -0.813240 	 3.425618 	 -4.762855 
H 	 -0.046548 	 2.077069 	 -4.493684 
H 	 5.098825 	 -1.693370 	 -3.991401 
H 	 5.732504 	 -1.803593 	 -2.599192 
H 	 1.867344 	 -5.416103 	 6.406488 
H 	 1.614164 	 -4.703455 	 5.065025 
H 	 -5.161424 	 0.601859 	 -7.298490 
H 	 -5.673176 	 0.971060 	 6.169459 
H 	 -2.709776 	 6.982323 	 1.518365 
H 	 -3.746437 	 -6.784007 	 1.031996 
H 	 4.179523 	 -3.293773 	 5.122829 
H 	 5.493647 	 -3.967157 	 5.530886 
H 	 6.301663 	 -1.653415 	 6.377269 
H 	 4.977877 	 -1.170218 	 5.692556 
H 	 -4.813964 	 4.060301 	 0.532272 
H 	 -6.325947 	 3.719639 	 -0.930711 
H 	 4.485863 	 1.512894 	 0.097424 
H 	 5.358641 	 2.273852 	 -0.950434 
H 	 7.132352 	 -6.223080 	 -1.936913 
H 	 5.629675 	 -6.010070 	 -2.032901 
H 	 -1.832687 	 -2.268442 	 5.630345 
H 	 -2.375549 	 -1.368262 	 4.547166 
H 	 -0.671268 	 2.632827 	 1.046265 
H 	 0.376187 	 3.658605 	 1.589333 
H 	 -2.195934 	 -0.235525 	 0.502296 
H 	 -3.243880 	 -1.462277 	 0.459162 
H 	 -3.838226 	 4.585539 	 5.869156 
H 	 -4.328929 	 5.782667 	 5.146240 
H 	 -0.346258 	 -2.912246 	 -6.944803 
H 	 -1.222880 	 -3.790960 	 -5.917984 
H 	 2.778592 	 -7.371031 	 3.002964 
H 	 4.306319 	 7.015097 	 3.310787 
H 	 -2.098805 	 -4.650566 	 3.226177 
H 	 -1.794462 	 -3.953210 	 1.860032 
H 	 -2.107448 	 -7.123173 	 3.791237 
H 	 -1.929550 	 -6.083627 	 4.994887 
H 	 -3.470289 	 2.535179 	 4.502047 
H 	 -3.747235 	 2.297010 	 6.032310 
H 	 -6.149435 	 -1.073236 	 -2.658132 
H 	 -6.338597 	 -2.225279 	 -3.471546 
H 	 -2.373022 	 1.304873 	 -4.399015 
H 	 -3.433836 	 0.687996 	 -3.437088 
H 	 0.835206 	 -3.131314 	 2.799160 
H 	 -0.107882 	 -3.339389 	 3.890554 
H 	 -7.245608 	 -0.310372 	 4.183339 
H 	 -6.943400 	 -0.325006 	 2.558909 
H 	 7.064477 	 -4.708084 	 3.431927 
H 	 7.030651 	 -5.629117 	 4.690627 
H 	 -6.883275 	 2.552734 	 -3.002911 
H 	 -5.408488 	 2.099768 	 -2.660366 
H 	 -5.265082 	 -4.279770 	 -2.234644 
H 	 -5.521620 	 -5.678208 	 -3.050184 
H 	 4.465023 	 2.456761 	 -3.237418 
H 	 3.412562 	 3.627750 	 -3.089408 
H 	 3.339170 	 -3.804355 	 3.457574 
H 	 4.573756 	 -4.679866 	 3.111947 
H 	 -6.348349 	 5.735098 	 1.047125 
H 	 -6.453613 	 -7.679855 	 1.117241 
H 	 6.317054 	 -3.570545 	 -1.015194 
H 	 7.091856 	 -2.283196 	 -0.705872 
H 	 1.045529 	 -0.821239 	 6.986736 
H 	 2.273712 	 -1.315138 	 -6.996604 
H 	 6.968072 	 3.923454 	 7.003505 
H 	 5.489623 	 3.984122 	 7.557207 
H 	 -2.564456 	 -7.273838 	 -5.714529 
H 	 -3.079516 	 -6.791227 	 -4.284787 
H 	 7.087131 	 5.235030 	 -4.594558 
H 	 6.152087 	 5.374873 	 -3.335964 
H 	 7.156840 	 -6.901670 	 -4.419676 
H 	 5.698467 	 -7.028887 	 -4.992359 
H 	 -1.190148 	 2.994877 	 -1.617926 
H 	 -2.388890 	 3.783035 	 -2.213537 
H 	 -0.998079 	 5.336634 	 2.294019 
H 	 -0.952346 	 5.846138 	 3.711193 
H 	 3.356348 	 -1.537619 	 -2.120811 
H 	 2.324018 	 -2.239052 	 -1.222826 
H 	 -5.226582 	 7.065893 	 -2.872756 
H 	 -5.612680 	 7.130555 	 -4.368515 
H 	 -7.021047 	 1.458586 	 1.328812 
H 	 -5.543860 	 0.881300 	 1.303493 
H 	 2.067992 	 2.601045 	 5.639058 
H 	 0.782299 	 3.083248 	 6.292423 
H 	 6.414535 	 1.952678 	 -4.508653 
H 	 6.182749 	 0.827528 	 -3.417796 
H 	 -7.339370 	 -5.322204 	 6.991940 
H 	 6.789956 	 -5.634344 	 -6.524908 
H 	 3.792682 	 4.677804 	 -5.940113 
H 	 5.248584 	 5.474549 	 -5.922979 
H 	 1.578946 	 2.234669 	 -2.059826 
H 	 0.562797 	 1.082545 	 -1.818887 
H 	 -2.941321 	 -2.777875 	 -5.231542 
H 	 -3.253935 	 -4.267264 	 -5.183190 
H 	 -0.368136 	 0.624487 	 1.760401 
H 	 0.061156 	 1.088410 	 0.200021 
H 	 0.287201 	 -1.763499 	 0.117013 
H 	 0.461391 	 -3.242435 	 0.021687 
H 	 1.056770 	 1.637471 	 3.113754 
H 	 0.093828 	 0.586547 	 3.902540 
H 	 -4.181750 	 6.702836 	 -0.339695 
H 	 -5.213383 	 5.509901 	 -0.717964 
H 	 -1.598166 	 -0.671735 	 -1.174246 
H 	 -0.539083 	 -1.531908 	 -1.875888 
H 	 -0.864414 	 5.821078 	 -5.714794 
H 	 -0.088227 	 6.180811 	 -4.428291 
H 	 7.286671 	 7.191894 	 6.490818 
H 	 6.107109 	 -6.816339 	 6.137916 
H 	 2.860277 	 -0.401776 	 1.145922 
H 	 2.962888 	 -0.230934 	 -0.346538 
H 	 -0.133652 	 6.306577 	 -2.355719 
H 	 0.490221 	 -7.111442 	 -2.596249 
H 	 -3.419053 	 -3.419365 	 -2.863713 
H 	 -3.444769 	 -2.424980 	 -1.757413 
H 	 0.113283 	 -1.598733 	 -4.478745 
H 	 -0.809535 	 -0.739503 	 -5.370786 
H 	 -3.230419 	 1.842396 	 -1.621825 
H 	 -3.661473 	 0.447122 	 -1.158924 
H 	 6.646492 	 0.483605 	 5.864736 
H 	 7.267971 	 1.751217 	 5.132054 
H 	 -6.408730 	 -1.062615 	 -6.399279 
H 	 -6.019574 	 -0.629349 	 -4.946782 
H 	 -6.951613 	 6.293658 	 -6.469206 
H 	 -6.125570 	 5.660917 	 7.212500 
H 	 -7.300259 	 -4.293719 	 -3.414606 
H 	 7.034750 	 -3.758103 	 -4.841180 
H 	 -6.036466 	 4.268326 	 -4.053051 
H 	 -5.507758 	 4.400655 	 -5.424612 
H 	 6.435755 	 -0.119053 	 -0.863642 
H 	 -7.148994 	 -0.394894 	 -0.238509 
H 	 -3.253849 	 4.123716 	 0.095696 
H 	 -7.188925 	 3.292954 	 3.361822 
H 	 4.530086 	 -3.987857 	 -4.658219 
H 	 4.004185 	 -5.500392 	 -4.620351 
H 	 0.273252 	 -4.352656 	 -3.125873 
H 	 -0.890093 	 -3.665170 	 -3.926548 
H 	 -1.774951 	 3.057983 	 -7.153533 
H 	 -1.700780 	 3.031861 	 6.215841 
H 	 -5.415728 	 -5.576592 	 1.895342 
H 	 -5.324396 	 -5.032716 	 0.324195 
H 	 -6.793782 	 4.231518 	 4.538945 
O 	 2.900394 	 -5.528457 	 0.356820 
O 	 -0.122420 	 5.687220 	 5.299202 
O 	 4.689109 	 -6.351391 	 6.934060 
O 	 0.803574 	 -5.551904 	 -1.709867 
O 	 3.762616 	 -7.226550 	 -4.637340 
O 	 1.850190 	 6.993245 	 -6.686392 
O 	 6.120624 	 5.167166 	 -1.153120 
O 	 3.865673 	 0.626574 	 -6.719087 
O 	 6.036183 	 6.634921 	 3.509987 
O 	 5.080326 	 -1.638885 	 -5.859219 
O 	 -1.591175 	 -4.947609 	 -0.177172 
O 	 6.530358 	 1.462309 	 -6.119614 
O 	 -2.650678 	 -1.279214 	 -6.037460 
O 	 1.958865 	 1.381087 	 -4.715905 
O 	 -5.114311 	 -5.255314 	 3.782549 
O 	 1.781738 	 -5.152665 	 -6.523491 
O 	 -2.192941 	 6.528811 	 -7.269203 
O 	 4.458909 	 3.850720 	 4.253869 
O 	 7.213484 	 2.877951 	 1.751475 
O 	 -4.180524 	 2.059647 	 2.906416 
O 	 -7.255986 	 -3.510685 	 2.122875 
O 	 -3.221929 	 -0.639561 	 3.054650 
O 	 2.276609 	 6.384829 	 0.091786 
O 	 4.581661 	 -4.460068 	 -1.498716 
O 	 -3.140453 	 5.159683 	 -3.286535 
O 	 -4.366211 	 -4.833620 	 -7.129725 
O 	 -6.966606 	 -2.185928 	 7.104506 
O 	 -4.475376 	 -3.201020 	 1.198515 
O 	 2.824269 	 -1.882066 	 4.867719 
O 	 1.896045 	 3.504582 	 2.426621 
O 	 -1.008923 	 -5.924398 	 6.681093 
O 	 2.273816 	 3.924612 	 -5.444163 
O 	 0.766398 	 -6.840348 	 2.528815 
O 	 3.112894 	 1.139921 	 5.306723 
O 	 3.501267 	 5.637905 	 -2.594699 
O 	 -0.656427 	 6.159794 	 -0.379279 
O 	 4.342612 	 4.916206 	 1.188209 
O 	 -3.883989 	 6.332209 	 3.185696 
O 	 -4.353937 	 3.216696 	 -6.114638 
O 	 -0.378866 	 0.258643 	 6.204301 
O 	 -5.125251 	 -2.659036 	 5.039315 
O 	 -0.977740 	 2.477130 	 -4.622684 
O 	 5.168839 	 -1.181024 	 -3.117249 
O 	 1.464854 	 -5.543142 	 5.528316 
O 	 -4.897814 	 1.031567 	 6.775020 
O 	 -2.940317 	 -7.309119 	 0.739526 
O 	 4.623713 	 -3.628493 	 5.937479 
O 	 5.756352 	 -0.870590 	 6.148597 
O 	 -6.414613 	 4.209266 	 -0.088121 
O 	 5.414153 	 1.587745 	 -0.253910 
O 	 6.304578 	 -6.737681 	 -1.951826 
O 	 -2.484145 	 -1.577778 	 5.518949 
O 	 -0.506146 	 3.646366 	 1.198156 
O 	 -2.924458 	 -0.681985 	 -0.034903 
O 	 -4.378050 	 5.378382 	 6.022068 
O 	 -0.489297 	 -3.816578 	 -6.606512 
O 	 3.383614 	 7.080683 	 3.665409 
O 	 -2.277749 	 -3.819237 	 2.716559 
O 	 -2.286353 	 -6.179340 	 4.057694 
O 	 -3.281672 	 2.912447 	 5.424615 
O 	 -5.637234 	 -1.515512 	 -3.413745 
O 	 -3.202252 	 0.775182 	 -4.407294 
O 	 0.863958 	 -3.483829 	 3.712438 
O 	 -6.840881 	 -0.847568 	 3.401382 
O 	 6.529446 	 -4.954640 	 4.236259 
O 	 -5.964238 	 2.846011 	 -3.018578 
O 	 -5.889138 	 -4.775360 	 -2.802847 
O 	 3.545856 	 2.687442 	 -2.868920 
O 	 3.735347 	 -4.357696 	 2.745167 
O 	 -6.636892 	 6.417094 	 1.684767 
O 	 7.199864 	 -3.295655 	 -0.740470 
O 	 1.586778 	 -1.582224 	 7.231550 
O 	 6.093315 	 3.458158 	 6.906380 
O 	 -2.548568 	 -6.511285 	 -5.089944 
O 	 6.135965 	 5.340488 	 -4.306535 
O 	 6.634716 	 -7.004782 	 -5.237041 
O 	 -2.119506 	 3.191188 	 -1.464555 
O 	 -1.072028 	 6.144549 	 2.810414 
O 	 2.411353 	 -1.419607 	 -1.784813 
O 	 -5.342055 	 -7.253411 	 -3.619079 
O 	 -6.468188 	 0.671703 	 1.092292 
O 	 1.517162 	 3.418704 	 5.698124 
O 	 6.205800 	 1.786917 	 -3.519117 
O 	 -7.495893 	 -4.997288 	 -6.971621 
O 	 4.520702 	 5.044138 	 -6.511406 
O 	 0.775767 	 2.012079 	 -1.596006 
O 	 -2.650077 	 -3.614134 	 -4.723905 
O 	 -0.647261 	 0.950626 	 0.870970 
O 	 0.576705 	 -2.520316 	 0.660981 
O 	 0.708938 	 0.710912 	 3.149776 
O 	 -4.808975 	 6.360886 	 -1.061133 
O 	 -0.622667 	 -0.706589 	 -1.386610 
O 	 -0.120916 	 5.531077 	 -5.151311 
O 	 7.048488 	 -7.080592 	 5.774056 
O 	 3.132344 	 0.204740 	 0.470185 
O 	 0.226065 	 6.911742 	 -2.995515 
O 	 -3.438999 	 -3.385224 	 -1.899212 
O 	 0.075532 	 -0.730342 	 -4.925276 
O 	 -3.878075 	 1.129896 	 -1.833989 
O 	 -7.433869 	 0.877006 	 5.493672 
O 	 -6.106545 	 -0.292993 	 -5.900091 
O 	 -6.975139 	 5.823410 	 -7.319536 
O 	 6.780621 	 -3.864025 	 -3.917670 
O 	 -5.922154 	 4.964492 	 -4.716897 
O 	 7.224088 	 -0.634886 	 -1.006266 
O 	 -3.849071 	 4.144587 	 0.889779 
O 	 3.714882 	 -4.552081 	 -4.626990 
O 	 0.026008 	 -3.483127 	 -3.533215 
O 	 -1.132182 	 2.947885 	 7.057024 
O 	 -5.334160 	 -5.810787 	 0.936050 
O 	 -6.797226 	 3.276539 	 4.274473 
K 	 3.037325 	 5.939571 	 5.912245 
