333
conformation = 45
H 	 2.847935 	 -6.499145 	 0.486703 
H 	 2.830213 	 -5.281436 	 1.280321 
H 	 -0.716530 	 5.418652 	 5.994951 
H 	 0.486198 	 4.966145 	 5.082657 
H 	 4.577864 	 -6.519475 	 -7.020088 
H 	 4.463963 	 -5.415292 	 6.833653 
H 	 0.072110 	 -5.294446 	 -1.132039 
H 	 1.599845 	 -5.655426 	 -1.122552 
H 	 3.724786 	 7.086469 	 -3.907863 
H 	 3.255240 	 7.149113 	 -5.342332 
H 	 1.065435 	 6.502547 	 -6.384731 
H 	 1.674862 	 -6.938054 	 -6.689705 
H 	 6.988967 	 4.894660 	 -0.725316 
H 	 6.296404 	 6.157012 	 -1.254067 
H 	 3.281324 	 0.849575 	 -6.006953 
H 	 4.792205 	 0.862925 	 -6.526424 
H 	 6.740078 	 6.672197 	 2.745143 
H 	 6.330413 	 7.163567 	 4.223018 
H 	 4.759697 	 -0.873657 	 -6.402407 
H 	 6.011787 	 -1.828004 	 -6.181142 
H 	 -2.112945 	 -5.665529 	 0.036568 
H 	 -2.149189 	 -4.377075 	 -0.808742 
H 	 7.367371 	 0.931625 	 -6.208741 
H 	 6.499386 	 2.212025 	 -6.787844 
H 	 -2.989219 	 -1.171007 	 -6.969975 
H 	 -3.013792 	 -0.504820 	 -5.547001 
H 	 1.382161 	 0.631960 	 -4.371827 
H 	 2.631735 	 1.610239 	 -4.067674 
H 	 -4.147927 	 -5.526289 	 3.865264 
H 	 -5.066482 	 -4.344692 	 4.116820 
H 	 1.026064 	 -4.674450 	 -6.277090 
H 	 2.549172 	 -4.724303 	 -6.140419 
H 	 -1.869577 	 -7.547212 	 7.133962 
H 	 -2.998886 	 6.400506 	 7.053714 
H 	 5.237725 	 4.029816 	 4.779152 
H 	 4.425213 	 2.860057 	 4.342064 
H 	 -7.221598 	 3.441101 	 0.940862 
H 	 6.338964 	 2.754279 	 1.329306 
H 	 -5.067281 	 2.405643 	 3.178244 
H 	 -3.943769 	 2.655032 	 2.085179 
H 	 7.314587 	 -3.445436 	 1.128106 
H 	 7.360969 	 -2.624986 	 2.427221 
H 	 -3.677012 	 0.245104 	 2.843836 
H 	 -3.843523 	 -1.335027 	 2.652132 
H 	 2.588150 	 5.672010 	 0.586414 
H 	 1.272357 	 6.280470 	 0.089839 
H 	 4.021284 	 -4.387613 	 -2.386282 
H 	 4.027360 	 -4.772778 	 -0.850473 
H 	 -3.740481 	 4.935013 	 -4.021651 
H 	 -3.818784 	 5.558893 	 -2.671042 
H 	 -4.382491 	 -5.667183 	 -6.707477 
H 	 -5.210962 	 -4.652887 	 7.359243 
H 	 -6.232036 	 -2.224529 	 6.392683 
H 	 -7.119512 	 -3.158233 	 7.306883 
H 	 -3.808550 	 -3.483649 	 1.885250 
H 	 -5.357853 	 -3.188042 	 1.504792 
H 	 2.066878 	 -1.981295 	 4.277707 
H 	 2.458448 	 -1.912109 	 5.742350 
H 	 2.732494 	 3.357216 	 1.970131 
H 	 2.147477 	 4.115801 	 3.144792 
H 	 -1.016820 	 -5.131849 	 7.239291 
H 	 -0.124391 	 -5.788093 	 6.277909 
H 	 1.989355 	 3.028601 	 -5.206555 
H 	 1.547449 	 4.533855 	 -5.213393 
H 	 0.954181 	 -6.810444 	 3.441377 
H 	 0.193164 	 -7.571239 	 2.323039 
H 	 2.659795 	 0.434706 	 4.819022 
H 	 3.396542 	 0.826834 	 6.163129 
H 	 4.293909 	 5.343922 	 -2.260473 
H 	 2.980998 	 5.931529 	 -1.790238 
H 	 -0.646522 	 5.354839 	 0.049214 
H 	 -1.425780 	 6.655379 	 -0.152938 
H 	 4.906916 	 4.586177 	 1.913449 
H 	 4.920693 	 5.142015 	 0.359701 
H 	 -4.825638 	 6.479854 	 2.921464 
H 	 -3.783727 	 5.486642 	 2.663268 
H 	 -4.029635 	 2.474049 	 -5.607356 
H 	 -4.520182 	 2.708874 	 -7.016695 
H 	 -0.618066 	 1.070732 	 6.736428 
H 	 -1.181045 	 -0.249145 	 6.002291 
H 	 -5.410094 	 -1.897920 	 4.370924 
H 	 -4.283356 	 -2.375328 	 5.303382 
H 	 -0.773488 	 3.452872 	 -4.727809 
H 	 -0.157441 	 2.130019 	 -4.465679 
H 	 5.203988 	 -1.482748 	 -4.096383 
H 	 5.607447 	 -1.853084 	 -2.694827 
H 	 1.892997 	 -5.411949 	 6.321259 
H 	 1.449815 	 -4.758200 	 4.905580 
H 	 -5.108690 	 0.638727 	 -7.246098 
H 	 -5.682368 	 0.973845 	 6.256429 
H 	 -2.678424 	 7.109825 	 1.501845 
H 	 -3.752302 	 -6.780445 	 0.860262 
H 	 4.083248 	 -3.169088 	 5.160391 
H 	 5.406880 	 -3.954027 	 5.320354 
H 	 6.356095 	 -1.687729 	 6.177196 
H 	 4.966767 	 -1.314535 	 5.702122 
H 	 -4.774217 	 4.055282 	 0.506519 
H 	 -6.345390 	 3.815185 	 -1.029240 
H 	 4.472587 	 1.217180 	 -0.074150 
H 	 5.321345 	 2.243518 	 -0.999568 
H 	 7.108762 	 -6.188962 	 -2.037675 
H 	 5.590029 	 -6.104353 	 -2.119700 
H 	 -1.930038 	 -2.422197 	 5.603268 
H 	 -2.499450 	 -1.191898 	 4.569629 
H 	 -0.719353 	 2.754659 	 0.986192 
H 	 0.365492 	 3.466241 	 1.752551 
H 	 -2.204015 	 -0.203420 	 0.411817 
H 	 -3.359351 	 -1.409307 	 0.465391 
H 	 -3.922210 	 4.509138 	 5.779338 
H 	 -4.250943 	 5.970711 	 5.090402 
H 	 -0.289924 	 -2.911234 	 -6.852171 
H 	 -1.317159 	 -3.766831 	 -6.021438 
H 	 2.890065 	 -7.342730 	 3.043130 
H 	 4.316813 	 6.862413 	 3.253992 
H 	 -2.076585 	 -4.735884 	 3.040535 
H 	 -1.731575 	 -3.830967 	 1.827776 
H 	 -2.393904 	 -7.115292 	 3.806273 
H 	 -1.973272 	 -6.113124 	 4.961009 
H 	 -3.534937 	 2.548349 	 4.504060 
H 	 -3.781463 	 2.261781 	 5.996391 
H 	 -5.995247 	 -1.078532 	 -2.708916 
H 	 -6.191898 	 -2.345644 	 -3.583625 
H 	 -2.445791 	 1.372129 	 -4.401006 
H 	 -3.412449 	 0.764168 	 -3.457543 
H 	 0.962131 	 -3.300015 	 2.684529 
H 	 -0.050119 	 -3.434541 	 3.888119 
H 	 -7.338477 	 -0.385453 	 4.006384 
H 	 -6.966811 	 -0.379182 	 2.528404 
H 	 7.082798 	 -4.891866 	 3.348824 
H 	 7.065315 	 -5.516623 	 4.760730 
H 	 -6.899216 	 2.475393 	 -3.035531 
H 	 -5.419672 	 2.067053 	 -2.885205 
H 	 -5.248412 	 -4.266823 	 -2.301969 
H 	 -5.635779 	 -5.646817 	 -3.095907 
H 	 4.489172 	 2.377436 	 -3.131242 
H 	 3.376560 	 3.597547 	 -3.099523 
H 	 3.388123 	 -3.778325 	 3.409922 
H 	 4.515688 	 -4.789165 	 3.060193 
H 	 -6.515301 	 5.651669 	 1.016012 
H 	 -6.519645 	 -7.682389 	 1.097027 
H 	 6.326299 	 -3.699356 	 -1.041180 
H 	 7.143418 	 -2.307743 	 -0.874064 
H 	 1.075385 	 -0.756680 	 7.088166 
H 	 2.354597 	 -1.209302 	 -7.158898 
H 	 6.911087 	 3.917665 	 6.946850 
H 	 5.479993 	 4.025648 	 7.426317 
H 	 -2.492745 	 -7.361065 	 -5.704515 
H 	 -2.941498 	 -6.757495 	 -4.303621 
H 	 7.109363 	 5.250337 	 -4.511188 
H 	 6.017060 	 5.436515 	 -3.393033 
H 	 7.130395 	 -7.114017 	 -4.456866 
H 	 5.714727 	 -7.196962 	 -4.989293 
H 	 -1.182538 	 3.016784 	 -1.634282 
H 	 -2.438387 	 3.716810 	 -2.274711 
H 	 -1.230361 	 5.360120 	 2.162137 
H 	 -0.819148 	 5.775002 	 3.702024 
H 	 3.291356 	 -1.566782 	 -2.318945 
H 	 2.503323 	 -2.207279 	 -1.200995 
H 	 -5.304843 	 7.072131 	 -2.822730 
H 	 -5.522147 	 6.947941 	 -4.360191 
H 	 -7.043965 	 1.500745 	 1.282672 
H 	 -5.597840 	 0.907946 	 1.286450 
H 	 2.057292 	 2.642494 	 5.508010 
H 	 0.867603 	 3.216075 	 6.388499 
H 	 6.413461 	 1.832616 	 -4.507479 
H 	 6.055426 	 0.841909 	 -3.402322 
H 	 -7.392174 	 -5.508945 	 7.043228 
H 	 6.890061 	 -5.578096 	 -6.418790 
H 	 3.684795 	 4.825118 	 -6.057018 
H 	 5.166020 	 5.333303 	 -5.917720 
H 	 1.679281 	 2.252811 	 -2.013364 
H 	 0.684766 	 1.043083 	 -1.883089 
H 	 -2.900734 	 -2.801240 	 -5.217644 
H 	 -3.224200 	 -4.306721 	 -5.250562 
H 	 -0.245520 	 0.643505 	 1.612772 
H 	 0.142320 	 1.139711 	 0.270970 
H 	 0.253187 	 -1.859293 	 -0.006548 
H 	 0.476223 	 -3.424225 	 0.157325 
H 	 1.075619 	 1.634030 	 3.096988 
H 	 0.110838 	 0.735429 	 3.816739 
H 	 -4.103748 	 6.751540 	 -0.522307 
H 	 -5.137954 	 5.575011 	 -0.625205 
H 	 -1.575692 	 -0.744320 	 -1.252768 
H 	 -0.388452 	 -1.478438 	 -2.071011 
H 	 -0.826601 	 5.891202 	 -5.811610 
H 	 -0.114097 	 6.192785 	 -4.401907 
H 	 7.271313 	 7.194556 	 6.479387 
H 	 6.175440 	 -6.622782 	 6.126007 
H 	 2.869831 	 -0.483119 	 1.055001 
H 	 2.892919 	 -0.123285 	 -0.516710 
H 	 -0.171208 	 6.377287 	 -2.286655 
H 	 0.360864 	 -7.111635 	 -2.692908 
H 	 -3.194902 	 -3.323662 	 -2.899783 
H 	 -3.536335 	 -2.421497 	 -1.659837 
H 	 0.090489 	 -1.558368 	 -4.487279 
H 	 -0.823455 	 -0.758717 	 -5.399845 
H 	 -3.250095 	 1.942575 	 -1.751982 
H 	 -3.625137 	 0.488700 	 -1.207579 
H 	 6.601965 	 0.396906 	 5.671831 
H 	 7.375937 	 1.764457 	 5.071001 
H 	 -6.433416 	 -1.035179 	 -6.537110 
H 	 -6.052320 	 -0.687769 	 -5.062304 
H 	 -6.826340 	 6.159394 	 -6.482495 
H 	 -6.014574 	 5.719447 	 7.195396 
H 	 -7.353529 	 -4.220357 	 -3.535356 
H 	 7.097082 	 -3.783767 	 -4.908483 
H 	 -6.024106 	 4.269460 	 -4.079650 
H 	 -5.592772 	 4.468542 	 -5.554967 
H 	 6.368171 	 -0.064074 	 -0.989474 
H 	 -7.214396 	 -0.327880 	 -0.184227 
H 	 -3.237278 	 4.335380 	 0.175896 
H 	 -7.215269 	 3.306424 	 3.305964 
H 	 4.456087 	 -3.953480 	 -4.734602 
H 	 3.993100 	 -5.483178 	 -4.672300 
H 	 0.333719 	 -4.234054 	 -3.116014 
H 	 -0.803869 	 -3.632241 	 -4.039543 
H 	 -1.671340 	 2.977272 	 -7.066118 
H 	 -1.697231 	 2.965974 	 6.249053 
H 	 -5.490703 	 -5.388024 	 1.759011 
H 	 -5.456106 	 -5.044612 	 0.315164 
H 	 -6.630301 	 4.133794 	 4.547278 
O 	 2.905667 	 -5.523798 	 0.312532 
O 	 -0.142307 	 5.670359 	 5.213985 
O 	 4.682720 	 -6.370717 	 6.948152 
O 	 0.846176 	 -5.548389 	 -1.711645 
O 	 3.774017 	 -7.233903 	 -4.697667 
O 	 1.862454 	 6.986300 	 -6.732460 
O 	 6.150309 	 5.190609 	 -1.221509 
O 	 3.879389 	 0.655858 	 -6.765172 
O 	 6.055271 	 6.643082 	 3.478170 
O 	 5.092395 	 -1.656475 	 -5.889739 
O 	 -1.575598 	 -4.912796 	 -0.233877 
O 	 6.539953 	 1.465985 	 -6.153500 
O 	 -2.675802 	 -1.293449 	 -6.069540 
O 	 1.949991 	 1.331505 	 -4.728374 
O 	 -5.077559 	 -5.288176 	 3.788826 
O 	 1.797384 	 -5.183676 	 -6.558139 
O 	 -2.200740 	 6.547747 	 -7.332531 
O 	 4.438117 	 3.838503 	 4.224974 
O 	 7.235639 	 2.880552 	 1.674656 
O 	 -4.217827 	 2.060003 	 2.849421 
O 	 -7.229042 	 -3.492898 	 2.053693 
O 	 -3.212172 	 -0.638899 	 2.960108 
O 	 2.259217 	 6.376787 	 0.043033 
O 	 4.579348 	 -4.436452 	 -1.563659 
O 	 -3.160498 	 5.168790 	 -3.286686 
O 	 -4.342215 	 -4.819471 	 -7.165812 
O 	 -6.979175 	 -2.176361 	 7.071383 
O 	 -4.446709 	 -3.221376 	 1.150105 
O 	 2.847675 	 -1.860098 	 4.830683 
O 	 1.898645 	 3.494855 	 2.421175 
O 	 -1.031912 	 -5.923670 	 6.652745 
O 	 2.300817 	 3.915458 	 -5.500327 
O 	 0.814395 	 -6.820342 	 2.483089 
O 	 3.143624 	 1.125257 	 5.288430 
O 	 3.462512 	 5.618661 	 -2.648694 
O 	 -0.656514 	 6.153090 	 -0.425625 
O 	 4.342084 	 4.916152 	 1.143501 
O 	 -3.890814 	 6.302780 	 3.185811 
O 	 -4.326846 	 3.225720 	 -6.164194 
O 	 -0.350551 	 0.295295 	 6.165195 
O 	 -5.169374 	 -2.634358 	 4.959415 
O 	 -0.988164 	 2.506512 	 -4.668381 
O 	 5.182965 	 -1.135909 	 -3.163787 
O 	 1.458897 	 -5.568481 	 5.454972 
O 	 -4.831591 	 1.013301 	 6.745759 
O 	 -2.937654 	 -7.322113 	 0.727479 
O 	 4.629022 	 -3.626960 	 5.854719 
O 	 5.757054 	 -0.883408 	 6.099457 
O 	 -6.396736 	 4.203199 	 -0.139962 
O 	 5.398390 	 1.587331 	 -0.311080 
O 	 6.316083 	 -6.761282 	 -1.973132 
O 	 -2.483173 	 -1.575311 	 5.482677 
O 	 -0.444599 	 3.641296 	 1.160540 
O 	 -2.931847 	 -0.680134 	 -0.087851 
O 	 -4.393004 	 5.389077 	 5.948246 
O 	 -0.505421 	 -3.810141 	 -6.634753 
O 	 3.415353 	 7.048597 	 3.611461 
O 	 -2.258318 	 -3.823895 	 2.662557 
O 	 -2.264395 	 -6.179857 	 4.009204 
O 	 -3.298389 	 2.902427 	 5.364512 
O 	 -5.656535 	 -1.540365 	 -3.487040 
O 	 -3.191742 	 0.745856 	 -4.449062 
O 	 0.891442 	 -3.458571 	 3.648387 
O 	 -6.835743 	 -0.872520 	 3.352357 
O 	 6.528175 	 -4.921279 	 4.137051 
O 	 -5.965373 	 2.866797 	 -3.077424 
O 	 -5.890123 	 -4.757171 	 -2.846396 
O 	 3.562932 	 2.630977 	 -2.953502 
O 	 3.720692 	 -4.352021 	 2.670453 
O 	 -6.678294 	 6.418715 	 1.652812 
O 	 7.185785 	 -3.270054 	 -0.779717 
O 	 1.613967 	 -1.591109 	 7.184513 
O 	 6.048864 	 3.467303 	 6.853074 
O 	 -2.508381 	 -6.531847 	 -5.143088 
O 	 6.145416 	 5.331462 	 -4.375991 
O 	 6.642446 	 -6.989157 	 -5.292076 
O 	 -2.117501 	 3.200364 	 -1.474914 
O 	 -1.050543 	 6.131740 	 2.772595 
O 	 2.448131 	 -1.425056 	 -1.840892 
O 	 -5.314252 	 -7.251819 	 -3.668177 
O 	 -6.512028 	 0.666001 	 1.030573 
O 	 1.498914 	 3.453766 	 5.709818 
O 	 6.250370 	 1.802825 	 -3.554878 
O 	 -7.505012 	 -4.977368 	 -7.025003 
O 	 4.514875 	 5.025957 	 -6.548992 
O 	 0.746756 	 1.998083 	 -1.650129 
O 	 -2.673308 	 -3.652621 	 -4.818444 
O 	 -0.676985 	 0.952892 	 0.774562 
O 	 0.610340 	 -2.556283 	 0.627069 
O 	 0.738543 	 0.716235 	 3.098276 
O 	 -4.816185 	 6.380078 	 -1.079848 
O 	 -0.620285 	 -0.752386 	 -1.432506 
O 	 -0.137461 	 5.529365 	 -5.219209 
O 	 6.997544 	 -7.064797 	 5.736133 
O 	 3.153007 	 0.217686 	 0.414369 
O 	 0.258003 	 6.896034 	 -3.051863 
O 	 -3.400616 	 -3.388542 	 -1.911606 
O 	 0.064631 	 -0.737411 	 -4.996427 
O 	 -3.877482 	 1.158060 	 -1.871515 
O 	 -7.427569 	 0.890912 	 5.452953 
O 	 -6.131377 	 -0.293332 	 -5.941934 
O 	 -6.976850 	 5.816423 	 7.519417 
O 	 6.790262 	 -3.866186 	 -4.005964 
O 	 -5.907191 	 4.995715 	 -4.790293 
O 	 7.196214 	 -0.613158 	 -1.025587 
O 	 -3.866450 	 4.128976 	 0.878330 
O 	 3.703302 	 -4.556571 	 -4.676945 
O 	 0.024706 	 -3.469437 	 -3.619043 
O 	 -1.130701 	 2.946944 	 6.999623 
O 	 -5.339132 	 -5.809996 	 0.901272 
O 	 -6.766333 	 3.264912 	 4.194631 
K 	 3.049036 	 5.945810 	 5.855538 
