333
conformation = 41
H 	 2.929507 	 -6.405211 	 0.488261 
H 	 2.830267 	 -5.118747 	 1.250991 
H 	 -0.637803 	 5.500835 	 5.973712 
H 	 0.583071 	 5.027879 	 5.080419 
H 	 4.676026 	 -6.409581 	 -6.932375 
H 	 4.456098 	 -5.328532 	 6.876231 
H 	 0.204313 	 -5.208196 	 -1.078523 
H 	 1.727553 	 -5.503347 	 -1.133334 
H 	 3.826442 	 7.168508 	 -3.896556 
H 	 3.322287 	 7.203598 	 -5.356844 
H 	 1.125302 	 6.657097 	 -6.394213 
H 	 1.655361 	 -6.867187 	 -6.643393 
H 	 6.965567 	 4.970681 	 -0.701031 
H 	 6.412383 	 6.267456 	 -1.234316 
H 	 3.287357 	 0.838266 	 -6.003816 
H 	 4.869010 	 1.034043 	 -6.544381 
H 	 6.758184 	 6.848505 	 2.778851 
H 	 6.371465 	 -7.489969 	 4.171209 
H 	 4.797461 	 -0.828638 	 -6.403430 
H 	 6.054280 	 -1.760677 	 -6.126765 
H 	 -2.113727 	 -5.532769 	 0.055902 
H 	 -2.148920 	 -4.253924 	 -0.780551 
H 	 7.416066 	 1.023036 	 -6.134665 
H 	 6.534578 	 2.307382 	 -6.831927 
H 	 -2.951276 	 -1.061713 	 -6.969722 
H 	 -2.896811 	 -0.422687 	 -5.523275 
H 	 1.370259 	 0.708124 	 -4.319686 
H 	 2.698104 	 1.726347 	 -4.069574 
H 	 -4.056437 	 -5.489787 	 3.844969 
H 	 -5.010978 	 -4.332666 	 4.208221 
H 	 1.065560 	 -4.538845 	 -6.379642 
H 	 2.614653 	 -4.628623 	 -6.157272 
H 	 -1.829175 	 -7.377774 	 7.189362 
H 	 -3.009713 	 6.388002 	 7.036473 
H 	 5.234798 	 4.122007 	 4.791208 
H 	 4.390768 	 2.953852 	 4.296980 
H 	 -7.149070 	 3.514490 	 0.826312 
H 	 6.393296 	 2.755276 	 1.349445 
H 	 -5.082735 	 2.457192 	 3.162848 
H 	 -3.982358 	 2.713836 	 2.101948 
H 	 7.383514 	 -3.386426 	 1.083778 
H 	 -7.358989 	 -2.483121 	 2.388834 
H 	 -3.687075 	 0.248888 	 2.815882 
H 	 -3.740549 	 -1.248624 	 2.675247 
H 	 2.679813 	 5.788262 	 0.639594 
H 	 1.325027 	 6.401963 	 0.038832 
H 	 4.081803 	 -4.450103 	 -2.374554 
H 	 4.063178 	 -4.711276 	 -0.836375 
H 	 -3.684390 	 5.123685 	 -4.069072 
H 	 -3.807328 	 5.643320 	 -2.686216 
H 	 -4.348156 	 -5.624583 	 -6.729620 
H 	 -5.156054 	 -4.602145 	 7.312091 
H 	 -6.220806 	 -2.148826 	 6.376090 
H 	 -7.013699 	 -3.059344 	 7.231307 
H 	 -3.847713 	 -3.372787 	 1.955579 
H 	 -5.323127 	 -3.041856 	 1.489299 
H 	 2.120861 	 -1.849064 	 4.238704 
H 	 2.500988 	 -1.812084 	 5.721266 
H 	 2.780382 	 3.435571 	 1.930628 
H 	 2.124237 	 4.209912 	 3.151842 
H 	 -0.989697 	 -5.067720 	 7.251192 
H 	 -0.080799 	 -5.710024 	 6.234266 
H 	 2.076066 	 3.101262 	 -5.283772 
H 	 1.602473 	 4.581240 	 -5.236046 
H 	 0.959393 	 -6.712381 	 3.465174 
H 	 0.301801 	 -7.487854 	 2.340351 
H 	 2.709149 	 0.520826 	 4.820135 
H 	 3.467987 	 0.907197 	 6.243917 
H 	 4.348930 	 5.411280 	 -2.218951 
H 	 3.009637 	 5.923192 	 -1.807216 
H 	 -0.694503 	 5.322808 	 0.053227 
H 	 -1.454453 	 6.731996 	 -0.196705 
H 	 4.942259 	 4.693268 	 1.863149 
H 	 5.012204 	 5.287295 	 0.451578 
H 	 -4.769830 	 6.542256 	 2.895748 
H 	 -3.667796 	 5.545404 	 2.715263 
H 	 -4.111558 	 2.537704 	 -5.499904 
H 	 -4.472594 	 2.751424 	 -6.924277 
H 	 -0.508580 	 1.248026 	 6.635350 
H 	 -1.163351 	 0.012512 	 6.029256 
H 	 -5.410456 	 -1.762890 	 4.392400 
H 	 -4.215900 	 -2.382696 	 5.279564 
H 	 -0.739776 	 3.570577 	 -4.675434 
H 	 -0.073516 	 2.172799 	 -4.401703 
H 	 5.275912 	 -1.217953 	 -4.184414 
H 	 5.619609 	 -1.790655 	 -2.681898 
H 	 1.953439 	 -5.255137 	 6.270397 
H 	 1.427984 	 -4.709668 	 4.871217 
H 	 -5.005536 	 0.762057 	 -7.253837 
H 	 -5.652271 	 1.065462 	 6.350599 
H 	 -2.659647 	 7.288428 	 1.661163 
H 	 -3.714672 	 -6.700887 	 0.863857 
H 	 4.028518 	 -3.007135 	 5.280780 
H 	 5.422727 	 -3.873353 	 5.231086 
H 	 6.455825 	 -1.542577 	 6.135260 
H 	 5.015610 	 -1.238680 	 5.750264 
H 	 -4.743952 	 4.148008 	 0.448181 
H 	 -6.287615 	 3.920362 	 -1.043425 
H 	 4.572247 	 1.176970 	 -0.159885 
H 	 5.291708 	 2.331306 	 -1.030042 
H 	 7.142943 	 -6.101831 	 -2.047222 
H 	 5.607546 	 -6.071254 	 -2.094244 
H 	 -1.998599 	 -2.318780 	 5.512951 
H 	 -2.542043 	 -1.086547 	 4.591590 
H 	 -0.800990 	 2.843317 	 0.934971 
H 	 0.345441 	 3.541237 	 1.784358 
H 	 -2.179294 	 -0.122343 	 0.457462 
H 	 -3.329298 	 -1.243152 	 0.496328 
H 	 -3.971164 	 4.609453 	 5.727555 
H 	 -4.176363 	 6.039217 	 5.164741 
H 	 -0.171168 	 -2.779198 	 -6.756612 
H 	 -1.303789 	 -3.650696 	 -6.042430 
H 	 2.976964 	 -7.186258 	 2.971624 
H 	 4.359519 	 6.911001 	 3.216647 
H 	 -2.065564 	 -4.683280 	 2.948692 
H 	 -1.654427 	 -3.675990 	 1.835640 
H 	 -2.500697 	 -7.027898 	 3.826164 
H 	 -1.929552 	 -6.044602 	 4.979265 
H 	 -3.515795 	 2.650139 	 4.445645 
H 	 -3.732368 	 2.343773 	 5.956495 
H 	 -5.895886 	 -0.972832 	 -2.681905 
H 	 -6.060051 	 -2.341651 	 -3.597962 
H 	 -2.415639 	 1.484855 	 -4.454911 
H 	 -3.434208 	 0.838213 	 -3.463434 
H 	 1.038134 	 -3.336016 	 2.669280 
H 	 -0.008911 	 -3.401845 	 3.856429 
H 	 -7.349029 	 -0.262590 	 4.009351 
H 	 -6.885554 	 -0.282415 	 2.500178 
H 	 7.139181 	 -4.833615 	 3.302360 
H 	 7.080485 	 -5.328689 	 4.736707 
H 	 -6.812007 	 2.552885 	 -3.057720 
H 	 -5.335750 	 2.176186 	 -2.966439 
H 	 -5.142749 	 -4.224288 	 -2.315971 
H 	 -5.564536 	 -5.571138 	 -3.106408 
H 	 4.599881 	 2.493309 	 -3.077702 
H 	 3.474872 	 3.638189 	 -3.107290 
H 	 3.442918 	 -3.696174 	 3.387824 
H 	 4.499361 	 -4.755713 	 3.045138 
H 	 -6.610451 	 5.726925 	 1.062288 
H 	 -6.499251 	 -7.565307 	 1.134040 
H 	 6.414871 	 -3.613879 	 -1.024605 
H 	 7.155365 	 -2.184815 	 -0.977774 
H 	 1.116999 	 -0.717388 	 7.135057 
H 	 2.438901 	 -1.121322 	 -7.205301 
H 	 6.939538 	 4.036941 	 6.919059 
H 	 5.434724 	 4.149614 	 7.394143 
H 	 -2.422784 	 -7.303359 	 -5.642005 
H 	 -2.846504 	 -6.706635 	 -4.270555 
H 	 7.193020 	 5.344953 	 -4.430291 
H 	 6.032081 	 5.537043 	 -3.443673 
H 	 7.150412 	 -7.116022 	 -4.460443 
H 	 5.824343 	 -7.224463 	 -4.988871 
H 	 -1.136541 	 3.105934 	 -1.617680 
H 	 -2.374751 	 3.799857 	 -2.250628 
H 	 -1.267830 	 5.484196 	 2.225591 
H 	 -0.712674 	 5.865755 	 3.619209 
H 	 3.313257 	 -1.416797 	 -2.468257 
H 	 2.569621 	 -2.057251 	 -1.171727 
H 	 -5.295194 	 7.256585 	 -2.830144 
H 	 -5.391458 	 6.984421 	 -4.260251 
H 	 -6.982643 	 1.601301 	 1.259088 
H 	 -5.588651 	 1.000049 	 1.288112 
H 	 2.073462 	 2.785065 	 5.483925 
H 	 0.934151 	 3.357711 	 6.510269 
H 	 6.439923 	 1.835334 	 -4.556417 
H 	 6.047811 	 0.983789 	 -3.359072 
H 	 -7.396381 	 -5.539350 	 7.112468 
H 	 7.047124 	 -5.473361 	 -6.319599 
H 	 3.705349 	 4.932633 	 -6.081319 
H 	 5.182964 	 5.364263 	 -5.752583 
H 	 1.671445 	 2.328371 	 -1.891230 
H 	 0.763162 	 1.126983 	 -1.882889 
H 	 -2.837247 	 -2.669916 	 -5.204903 
H 	 -3.179687 	 -4.302686 	 -5.276437 
H 	 -0.140201 	 0.766592 	 1.567331 
H 	 0.203572 	 1.231182 	 0.276043 
H 	 0.274897 	 -1.860256 	 -0.000879 
H 	 0.525119 	 -3.381407 	 0.298046 
H 	 1.155801 	 1.735448 	 3.107015 
H 	 0.168386 	 0.910208 	 3.860205 
H 	 -3.985359 	 6.862487 	 -0.572275 
H 	 -5.111389 	 5.698443 	 -0.546283 
H 	 -1.550229 	 -0.768060 	 -1.290328 
H 	 -0.320355 	 -1.303395 	 -2.140219 
H 	 -0.775180 	 5.981115 	 -5.836315 
H 	 -0.065071 	 6.219347 	 -4.433924 
H 	 7.331020 	 7.286822 	 6.423421 
H 	 6.183329 	 -6.477950 	 6.165565 
H 	 2.940593 	 -0.406744 	 0.968588 
H 	 2.899908 	 0.006017 	 -0.436824 
H 	 -0.098148 	 6.597592 	 -2.262692 
H 	 0.341199 	 -6.992490 	 -2.698393 
H 	 -3.021582 	 -3.228278 	 -2.801663 
H 	 -3.539962 	 -2.417674 	 -1.564525 
H 	 0.165277 	 -1.462124 	 -4.453331 
H 	 -0.801062 	 -0.664710 	 -5.402699 
H 	 -3.221058 	 2.027533 	 -1.749568 
H 	 -3.568683 	 0.605175 	 -1.183507 
H 	 6.664712 	 0.505834 	 5.585948 
H 	 -7.453542 	 1.877871 	 5.081233 
H 	 -6.381241 	 -0.892312 	 -6.567163 
H 	 -5.977725 	 -0.636868 	 -5.038387 
H 	 -6.764201 	 6.158927 	 -6.458405 
H 	 -6.026156 	 5.845637 	 7.206837 
H 	 -7.235395 	 -4.132483 	 -3.517160 
H 	 7.196810 	 -3.742240 	 -4.941263 
H 	 -5.911633 	 4.397625 	 -4.115295 
H 	 -5.571193 	 4.577783 	 -5.593960 
H 	 6.451002 	 0.042938 	 -1.041054 
H 	 -7.235857 	 -0.162481 	 -0.221535 
H 	 -3.186043 	 4.484925 	 0.222797 
H 	 -7.191215 	 3.442214 	 3.328269 
H 	 4.521461 	 -3.867302 	 -4.764400 
H 	 4.043361 	 -5.403378 	 -4.652431 
H 	 0.410522 	 -4.105535 	 -3.078265 
H 	 -0.796941 	 -3.626370 	 -4.075333 
H 	 -1.535085 	 3.029841 	 -7.069035 
H 	 -1.777302 	 3.013820 	 6.266515 
H 	 -5.451272 	 -5.206594 	 1.728543 
H 	 -5.465852 	 -4.951491 	 0.309885 
H 	 -6.495820 	 4.228939 	 4.568795 
O 	 2.951271 	 -5.442624 	 0.322783 
O 	 -0.113768 	 5.753715 	 5.194150 
O 	 4.721452 	 -6.292308 	 6.982422 
O 	 0.909293 	 -5.455598 	 -1.685169 
O 	 3.829024 	 -7.154362 	 -4.704947 
O 	 1.914906 	 7.066864 	 -6.731897 
O 	 6.216066 	 5.296363 	 -1.230060 
O 	 3.928731 	 0.759132 	 -6.766647 
O 	 6.109151 	 6.729716 	 3.479911 
O 	 5.148579 	 -1.583191 	 -5.876098 
O 	 -1.516371 	 -4.799271 	 -0.239104 
O 	 6.589206 	 1.554395 	 -6.141368 
O 	 -2.646364 	 -1.208385 	 -6.060067 
O 	 1.993386 	 1.392776 	 -4.708159 
O 	 -5.012838 	 -5.212715 	 3.820871 
O 	 1.854270 	 -5.112934 	 -6.552509 
O 	 -2.156304 	 6.650377 	 -7.343001 
O 	 4.478790 	 3.915237 	 4.239304 
O 	 7.286953 	 2.974364 	 1.659468 
O 	 -4.192054 	 2.151495 	 2.839405 
O 	 -7.169896 	 -3.389251 	 2.038172 
O 	 -3.164150 	 -0.548791 	 2.931829 
O 	 2.290209 	 6.461000 	 0.039528 
O 	 4.624395 	 -4.330163 	 -1.582005 
O 	 -3.129700 	 5.262892 	 -3.256259 
O 	 -4.277041 	 -4.716677 	 -7.160524 
O 	 -6.939905 	 -2.089756 	 7.082322 
O 	 -4.380751 	 -3.134646 	 1.148798 
O 	 2.908702 	 -1.756074 	 4.837681 
O 	 1.949031 	 3.579249 	 2.453992 
O 	 -1.000814 	 -5.831328 	 6.663568 
O 	 2.355391 	 4.003530 	 -5.502111 
O 	 0.892438 	 -6.715977 	 2.481608 
O 	 3.205527 	 1.214865 	 5.298799 
O 	 3.480011 	 5.699754 	 -2.645120 
O 	 -0.605341 	 6.242579 	 -0.430228 
O 	 4.386627 	 5.001524 	 1.146288 
O 	 -3.859704 	 6.371643 	 3.212393 
O 	 -4.264895 	 3.314252 	 -6.174733 
O 	 -0.290909 	 0.404189 	 6.170265 
O 	 -5.148737 	 -2.527352 	 4.942394 
O 	 -0.954192 	 2.620371 	 -4.669986 
O 	 5.235028 	 -1.022449 	 -3.161784 
O 	 1.499451 	 -5.498862 	 5.441125 
O 	 -4.750570 	 1.090787 	 6.760991 
O 	 -2.891106 	 -7.236184 	 0.736723 
O 	 4.680220 	 -3.537898 	 5.832520 
O 	 5.795128 	 -0.809786 	 6.095548 
O 	 -6.341596 	 4.292076 	 -0.141212 
O 	 5.434989 	 1.672735 	 -0.311542 
O 	 6.369671 	 -6.685411 	 -1.960243 
O 	 -2.434392 	 -1.487907 	 5.497347 
O 	 -0.358912 	 3.734339 	 1.173587 
O 	 -2.896252 	 -0.592136 	 -0.091541 
O 	 -4.355366 	 5.490243 	 5.929887 
O 	 -0.475558 	 -3.717088 	 -6.623774 
O 	 3.480293 	 7.113247 	 3.614027 
O 	 -2.195864 	 -3.737581 	 2.659684 
O 	 -2.208676 	 -6.090256 	 4.012349 
O 	 -3.264442 	 2.983165 	 5.364955 
O 	 -5.623090 	 -1.466090 	 -3.503012 
O 	 -3.137736 	 0.824967 	 -4.441575 
O 	 0.953455 	 -3.351081 	 3.637068 
O 	 -6.786575 	 -0.806967 	 3.349638 
O 	 6.575048 	 -4.816602 	 4.113119 
O 	 -5.930537 	 2.963158 	 -3.079299 
O 	 -5.853152 	 -4.652229 	 -2.842804 
O 	 3.611452 	 2.684411 	 -2.970617 
O 	 3.760383 	 -4.258886 	 2.658315 
O 	 -6.653815 	 6.506750 	 1.658596 
O 	 7.222647 	 -3.176054 	 -0.770303 
O 	 1.675751 	 -1.498725 	 7.188715 
O 	 6.072619 	 3.559741 	 6.849106 
O 	 -2.439435 	 -6.452186 	 -5.149156 
O 	 6.193127 	 5.414019 	 -4.383935 
O 	 6.688308 	 -6.890130 	 -5.295291 
O 	 -2.074080 	 3.296896 	 -1.455847 
O 	 -0.996416 	 6.206376 	 2.775549 
O 	 2.520201 	 -1.344937 	 -1.841866 
O 	 -5.254695 	 -7.173037 	 -3.666402 
O 	 -6.490796 	 0.749742 	 1.025991 
O 	 1.536857 	 3.562895 	 5.740918 
O 	 6.319321 	 1.898110 	 -3.538218 
O 	 7.436364 	 -4.872589 	 -7.029313 
O 	 4.552759 	 5.106947 	 -6.553095 
O 	 0.783474 	 2.078044 	 -1.657751 
O 	 -2.641093 	 -3.584671 	 -4.842282 
O 	 -0.648646 	 1.041881 	 0.748854 
O 	 0.675607 	 -2.490051 	 0.631610 
O 	 0.801503 	 0.807242 	 3.097237 
O 	 -4.775191 	 6.480015 	 -1.068844 
O 	 -0.561280 	 -0.694142 	 -1.437290 
O 	 -0.105056 	 5.621528 	 -5.227853 
O 	 7.015639 	 -6.966672 	 5.750718 
O 	 3.204577 	 0.312468 	 0.405170 
O 	 0.318498 	 6.968785 	 -3.052623 
O 	 -3.332889 	 -3.294587 	 -1.898040 
O 	 0.103247 	 -0.653797 	 -5.008205 
O 	 -3.832692 	 1.267208 	 -1.869487 
O 	 -7.375389 	 0.985293 	 5.457780 
O 	 -6.104497 	 -0.204913 	 -5.945734 
O 	 -6.920812 	 5.902930 	 7.509299 
O 	 6.831865 	 -3.770868 	 -4.033690 
O 	 -5.856463 	 5.101814 	 -4.800271 
O 	 7.224775 	 -0.509186 	 -1.004642 
O 	 -3.828886 	 4.208777 	 0.909693 
O 	 3.737712 	 -4.464141 	 -4.676743 
O 	 0.074562 	 -3.362088 	 -3.638430 
O 	 -1.076965 	 3.034763 	 7.004132 
O 	 -5.299642 	 -5.726770 	 0.910862 
O 	 -6.701565 	 3.341773 	 4.173226 
K 	 3.101237 	 6.038740 	 5.852866 
