333
conformation = 51
H 	 2.815839 	 -6.509218 	 0.415378 
H 	 2.890785 	 -5.271944 	 1.254289 
H 	 -0.695053 	 5.433499 	 5.966470 
H 	 0.467748 	 4.899321 	 5.114969 
H 	 4.533059 	 -6.560645 	 -7.020751 
H 	 4.509030 	 -5.421710 	 6.776118 
H 	 0.015771 	 -5.325094 	 -1.182537 
H 	 1.558453 	 -5.701924 	 -1.062483 
H 	 3.679541 	 7.090179 	 -3.892847 
H 	 3.199169 	 7.194712 	 -5.369102 
H 	 1.078849 	 6.470081 	 -6.359128 
H 	 1.729327 	 -6.938500 	 -6.708712 
H 	 7.038882 	 4.880469 	 -0.764661 
H 	 6.220809 	 6.160118 	 -1.280119 
H 	 3.329948 	 0.951038 	 -6.012446 
H 	 4.810041 	 0.847880 	 -6.483731 
H 	 6.739653 	 6.599680 	 2.783327 
H 	 6.396525 	 7.077706 	 4.325769 
H 	 4.777799 	 -0.873404 	 -6.392814 
H 	 5.986208 	 -1.787256 	 -6.249887 
H 	 -2.076786 	 -5.746223 	 0.043485 
H 	 -2.134543 	 -4.386667 	 -0.848573 
H 	 7.369432 	 0.940031 	 -6.292747 
H 	 6.531646 	 2.202360 	 -6.790916 
H 	 -2.996192 	 -1.186406 	 -7.013660 
H 	 -3.073383 	 -0.509636 	 -5.548289 
H 	 1.429878 	 0.605065 	 -4.423248 
H 	 2.593064 	 1.584486 	 -4.022078 
H 	 -4.139594 	 -5.515543 	 3.889925 
H 	 -5.100167 	 -4.316341 	 4.029741 
H 	 0.979825 	 -4.692975 	 -6.189871 
H 	 2.552427 	 -4.740068 	 -6.082272 
H 	 -1.804575 	 -7.564807 	 7.100044 
H 	 -3.012727 	 6.424504 	 7.060896 
H 	 5.261749 	 4.041667 	 4.756031 
H 	 4.451308 	 2.868153 	 4.384632 
H 	 -7.205866 	 3.460157 	 1.012276 
H 	 6.283609 	 2.805487 	 1.301515 
H 	 -5.040291 	 2.449385 	 3.193806 
H 	 -3.880886 	 2.686186 	 2.093923 
H 	 7.309799 	 -3.437539 	 1.159488 
H 	 7.282130 	 -2.715363 	 2.482386 
H 	 -3.611207 	 0.266873 	 2.886353 
H 	 -3.885908 	 -1.319731 	 2.637243 
H 	 2.610917 	 5.585503 	 0.617822 
H 	 1.298759 	 6.281285 	 0.119287 
H 	 4.033730 	 -4.262570 	 -2.352711 
H 	 3.986215 	 -4.781621 	 -0.809295 
H 	 -3.751751 	 4.834263 	 -4.015382 
H 	 -3.775343 	 5.574467 	 -2.613037 
H 	 -4.382365 	 -5.646247 	 -6.678844 
H 	 -5.257569 	 -4.637427 	 7.415195 
H 	 -6.249094 	 -2.214447 	 6.428586 
H 	 -7.175144 	 -3.073494 	 7.371908 
H 	 -3.784071 	 -3.516215 	 1.786322 
H 	 -5.351370 	 -3.236662 	 1.550929 
H 	 2.034404 	 -2.042677 	 4.287952 
H 	 2.439545 	 -1.904834 	 5.786128 
H 	 2.769210 	 3.368102 	 1.964073 
H 	 2.201503 	 4.090470 	 3.125355 
H 	 -1.042517 	 -5.100666 	 7.258905 
H 	 -0.119216 	 -5.833616 	 6.277174 
H 	 1.965557 	 3.047130 	 -5.163301 
H 	 1.607307 	 4.512887 	 -5.239149 
H 	 0.964061 	 -6.811073 	 3.441077 
H 	 0.144255 	 -7.557803 	 2.341162 
H 	 2.658670 	 0.388507 	 4.837035 
H 	 3.380085 	 0.799227 	 6.147632 
H 	 4.342445 	 5.345862 	 -2.277743 
H 	 3.014389 	 5.986346 	 -1.876852 
H 	 -0.579654 	 5.311675 	 0.113694 
H 	 -1.392140 	 6.692278 	 -0.097958 
H 	 4.874774 	 4.629556 	 1.879547 
H 	 4.881016 	 5.055409 	 0.344476 
H 	 -4.835702 	 6.541027 	 2.954359 
H 	 -3.800215 	 5.486448 	 2.618287 
H 	 -3.926223 	 2.514804 	 -5.667623 
H 	 -4.525689 	 2.811823 	 -7.023694 
H 	 -0.672746 	 0.964165 	 6.780780 
H 	 -1.104297 	 -0.358004 	 6.014464 
H 	 -5.407098 	 -1.914895 	 4.324406 
H 	 -4.306905 	 -2.289630 	 5.312020 
H 	 -0.777927 	 3.477433 	 -4.773071 
H 	 -0.090461 	 2.104195 	 -4.497713 
H 	 5.161746 	 -1.601619 	 -4.018186 
H 	 5.679067 	 -1.860661 	 -2.665515 
H 	 1.884135 	 -5.429799 	 6.357947 
H 	 1.529602 	 -4.720677 	 4.953601 
H 	 -5.124985 	 0.629481 	 -7.308294 
H 	 -5.699777 	 0.973124 	 6.158657 
H 	 -2.670353 	 7.017789 	 1.479892 
H 	 -3.762623 	 -6.769707 	 0.911682 
H 	 4.167820 	 -3.249438 	 5.114632 
H 	 5.399636 	 -3.936158 	 5.421376 
H 	 6.300885 	 -1.656467 	 6.244772 
H 	 4.958572 	 -1.263064 	 5.666150 
H 	 -4.799149 	 4.054781 	 0.513725 
H 	 -6.342088 	 3.772228 	 -1.019336 
H 	 4.520809 	 1.377866 	 -0.018183 
H 	 5.349551 	 2.272950 	 -1.006880 
H 	 7.116703 	 -6.198376 	 -2.014974 
H 	 5.630858 	 -6.068860 	 -2.107304 
H 	 -1.891788 	 -2.323586 	 5.605497 
H 	 -2.420756 	 -1.267634 	 4.528133 
H 	 -0.676149 	 2.664746 	 0.998894 
H 	 0.368703 	 3.539609 	 1.658099 
H 	 -2.233513 	 -0.238425 	 0.387872 
H 	 -3.292835 	 -1.410853 	 0.413374 
H 	 -3.873285 	 4.553904 	 5.807271 
H 	 -4.292154 	 5.860132 	 5.139634 
H 	 -0.319400 	 -2.875601 	 -6.940378 
H 	 -1.220327 	 -3.790393 	 -6.034754 
H 	 2.796176 	 -7.333665 	 2.992860 
H 	 4.322887 	 6.924435 	 3.270746 
H 	 -2.078744 	 -4.674552 	 3.110856 
H 	 -1.775264 	 -3.889102 	 1.840240 
H 	 -2.249534 	 -7.133198 	 3.781250 
H 	 -1.969091 	 -6.100123 	 4.917353 
H 	 -3.511435 	 2.528186 	 4.475873 
H 	 -3.746750 	 2.308653 	 5.974340 
H 	 -6.081056 	 -1.096459 	 -2.709837 
H 	 -6.280915 	 -2.277511 	 -3.537766 
H 	 -2.380156 	 1.368226 	 -4.399105 
H 	 -3.394041 	 0.738145 	 -3.488911 
H 	 0.898522 	 -3.200523 	 2.697417 
H 	 -0.057981 	 -3.381973 	 3.868140 
H 	 -7.293690 	 -0.368180 	 4.067100 
H 	 -6.967492 	 -0.357568 	 2.516141 
H 	 7.088448 	 -4.813246 	 3.353048 
H 	 7.039589 	 -5.559100 	 4.707348 
H 	 -6.888357 	 2.517089 	 -3.033934 
H 	 -5.435602 	 2.092287 	 -2.802493 
H 	 -5.270027 	 -4.259729 	 -2.290187 
H 	 -5.592261 	 -5.682014 	 -3.099649 
H 	 4.467623 	 2.399987 	 -3.201758 
H 	 3.381961 	 3.600661 	 -3.104632 
H 	 3.388475 	 -3.814447 	 3.385139 
H 	 4.549285 	 -4.732305 	 3.068414 
H 	 -6.420780 	 5.718258 	 1.012329 
H 	 -6.489395 	 7.180470 	 1.086010 
H 	 6.314111 	 -3.645209 	 -1.052452 
H 	 7.126809 	 -2.280439 	 -0.799921 
H 	 1.047492 	 -0.753621 	 7.016862 
H 	 2.281531 	 -1.272314 	 -7.135354 
H 	 6.918443 	 3.902487 	 6.959161 
H 	 5.501191 	 4.008911 	 7.479155 
H 	 -2.524978 	 -7.285545 	 -5.714839 
H 	 -2.991932 	 -6.752199 	 -4.339441 
H 	 7.076791 	 5.243829 	 -4.579578 
H 	 6.072530 	 5.407778 	 -3.409253 
H 	 7.163171 	 -7.013269 	 -4.457408 
H 	 5.681552 	 -7.101546 	 -5.018809 
H 	 -1.131708 	 2.996223 	 -1.656085 
H 	 -2.417423 	 3.728420 	 -2.250059 
H 	 -1.121783 	 5.340069 	 2.180328 
H 	 -0.885962 	 5.793267 	 3.722967 
H 	 3.319792 	 -1.582496 	 -2.212362 
H 	 2.445162 	 -2.182543 	 -1.278001 
H 	 -5.266333 	 7.066101 	 -2.871709 
H 	 -5.573380 	 7.041863 	 -4.396277 
H 	 -7.036471 	 1.466600 	 1.287482 
H 	 -5.576777 	 0.890116 	 1.273056 
H 	 2.054613 	 2.622567 	 5.560578 
H 	 0.819677 	 3.139645 	 6.321763 
H 	 6.426267 	 1.914245 	 -4.548899 
H 	 6.115592 	 0.814260 	 -3.423122 
H 	 -7.361197 	 -5.383635 	 7.034342 
H 	 6.827772 	 -5.592834 	 -6.499073 
H 	 3.723573 	 4.761802 	 -6.028594 
H 	 5.208636 	 5.397906 	 -5.988632 
H 	 1.600842 	 2.235194 	 -2.052189 
H 	 0.631271 	 1.063459 	 -1.870733 
H 	 -2.942700 	 -2.776224 	 -5.265212 
H 	 -3.252070 	 -4.275021 	 -5.248092 
H 	 -0.330288 	 0.622134 	 1.676499 
H 	 0.094155 	 1.129411 	 0.210586 
H 	 0.278578 	 -1.829178 	 0.030933 
H 	 0.470673 	 -3.319551 	 0.064400 
H 	 1.069165 	 1.628383 	 3.074940 
H 	 0.062720 	 0.642652 	 3.856660 
H 	 -4.166380 	 6.719226 	 -0.467763 
H 	 -5.158747 	 5.541354 	 -0.692250 
H 	 -1.566737 	 -0.691083 	 -1.232189 
H 	 -0.452142 	 -1.516605 	 -1.991206 
H 	 -0.842547 	 5.867669 	 -5.784689 
H 	 -0.108727 	 6.187120 	 -4.443068 
H 	 7.249814 	 -7.678657 	 6.460064 
H 	 6.212346 	 -6.743945 	 6.092048 
H 	 2.865163 	 -0.444985 	 1.092567 
H 	 2.930498 	 -0.170298 	 -0.490961 
H 	 -0.149173 	 6.325367 	 -2.370055 
H 	 0.435452 	 -7.091634 	 -2.676473 
H 	 -3.312316 	 -3.351123 	 -2.919596 
H 	 -3.483438 	 -2.448532 	 -1.752693 
H 	 0.089672 	 -1.602563 	 -4.493177 
H 	 -0.807036 	 -0.755459 	 -5.400620 
H 	 -3.243022 	 1.897425 	 -1.716443 
H 	 -3.633239 	 0.456998 	 -1.199095 
H 	 6.641596 	 0.440179 	 5.741817 
H 	 7.318325 	 1.812896 	 5.047639 
H 	 -6.432205 	 -1.074748 	 -6.501519 
H 	 -6.047405 	 -0.667780 	 -5.021983 
H 	 -6.885899 	 6.238153 	 -6.481475 
H 	 -6.046238 	 5.683422 	 7.172413 
H 	 -7.347899 	 -4.252922 	 -3.497452 
H 	 7.065684 	 -3.755742 	 -4.927763 
H 	 -6.041408 	 4.273042 	 -4.098660 
H 	 -5.556057 	 4.434740 	 -5.508837 
H 	 6.362159 	 -0.077277 	 -0.945330 
H 	 -7.176973 	 -0.377580 	 -0.214299 
H 	 -3.234545 	 4.246775 	 0.107814 
H 	 -7.200172 	 3.294048 	 3.300065 
H 	 4.473676 	 -3.968270 	 -4.712361 
H 	 4.004376 	 -5.505192 	 -4.676874 
H 	 0.304443 	 -4.303381 	 -3.137009 
H 	 -0.845978 	 -3.631124 	 -4.014990 
H 	 -1.731450 	 3.013534 	 -7.110605 
H 	 -1.702886 	 3.005220 	 6.162832 
H 	 -5.469682 	 -5.472869 	 1.868946 
H 	 -5.391281 	 -5.057825 	 0.293184 
H 	 -6.708779 	 4.200475 	 4.532844 
O 	 2.903906 	 -5.523332 	 0.313442 
O 	 -0.133480 	 5.678665 	 5.237396 
O 	 4.686609 	 -6.359066 	 6.918127 
O 	 0.825432 	 -5.550486 	 -1.733766 
O 	 3.768738 	 -7.228500 	 -4.687462 
O 	 1.856065 	 6.992433 	 -6.730468 
O 	 6.133773 	 5.177896 	 -1.209503 
O 	 3.871438 	 0.640691 	 -6.763345 
O 	 6.046392 	 6.638890 	 3.470840 
O 	 5.084517 	 -1.645545 	 -5.896491 
O 	 -1.583948 	 -4.931419 	 -0.226413 
O 	 6.534707 	 1.465059 	 -6.158468 
O 	 -2.661121 	 -1.288860 	 -6.072695 
O 	 1.953710 	 1.355970 	 -4.744148 
O 	 -5.096691 	 -5.272745 	 3.764614 
O 	 1.789920 	 -5.169955 	 -6.563126 
O 	 -2.198153 	 6.535597 	 -7.320307 
O 	 4.446083 	 3.846332 	 4.216738 
O 	 7.229871 	 2.878556 	 1.692016 
O 	 -4.199862 	 2.057107 	 2.859271 
O 	 -7.242474 	 -3.501791 	 2.067371 
O 	 -3.215354 	 -0.637721 	 2.987207 
O 	 2.266745 	 6.384592 	 0.043910 
O 	 4.581232 	 -4.449069 	 -1.551937 
O 	 -3.148087 	 5.163472 	 -3.309327 
O 	 -4.354906 	 -4.829470 	 -7.167736 
O 	 -6.970978 	 -2.183183 	 7.064531 
O 	 -4.461075 	 -3.214684 	 1.155124 
O 	 2.837249 	 -1.871866 	 4.826129 
O 	 1.894543 	 3.499068 	 2.401303 
O 	 -1.018531 	 -5.926490 	 6.644102 
O 	 2.285813 	 3.921653 	 -5.492998 
O 	 0.788908 	 -6.832094 	 2.485579 
O 	 3.129420 	 1.131522 	 5.278327 
O 	 3.481226 	 5.628279 	 -2.641464 
O 	 -0.658391 	 6.158163 	 -0.423999 
O 	 4.345721 	 4.916213 	 1.146106 
O 	 -3.884079 	 6.319028 	 3.165595 
O 	 -4.340456 	 3.219262 	 -6.158724 
O 	 -0.365499 	 0.277815 	 6.164339 
O 	 -5.145898 	 -2.650370 	 4.980127 
O 	 -0.984229 	 2.488087 	 -4.666147 
O 	 5.175090 	 -1.156467 	 -3.165021 
O 	 1.461910 	 -5.555401 	 5.469917 
O 	 -4.863284 	 1.021299 	 6.741919 
O 	 -2.938388 	 -7.316392 	 0.713259 
O 	 4.626988 	 -3.628062 	 5.873404 
O 	 5.761312 	 -0.877092 	 6.104131 
O 	 -6.405452 	 4.205235 	 -0.134218 
O 	 5.403113 	 1.585471 	 -0.302671 
O 	 6.309192 	 -6.749362 	 -1.983046 
O 	 -2.483404 	 -1.578413 	 5.479484 
O 	 -0.474871 	 3.644415 	 1.157582 
O 	 -2.925405 	 -0.681623 	 -0.079017 
O 	 -4.384739 	 5.383493 	 5.961185 
O 	 -0.499388 	 -3.816279 	 -6.638155 
O 	 3.401576 	 7.063666 	 3.618338 
O 	 -2.268465 	 -3.823336 	 2.667715 
O 	 -2.273918 	 -6.179164 	 4.013676 
O 	 -3.290622 	 2.906487 	 5.375439 
O 	 -5.644331 	 -1.527533 	 -3.472433 
O 	 -3.200236 	 0.756932 	 -4.448461 
O 	 0.877793 	 -3.473396 	 3.662086 
O 	 -6.838230 	 -0.858287 	 3.356346 
O 	 6.528874 	 -4.939375 	 4.166941 
O 	 -5.962316 	 2.855514 	 -3.070180 
O 	 -5.887780 	 -4.766168 	 -2.845392 
O 	 3.555666 	 2.660876 	 -2.933473 
O 	 3.726428 	 -4.353803 	 2.687953 
O 	 -6.658073 	 6.417802 	 1.647429 
O 	 7.193468 	 -3.282788 	 -0.782279 
O 	 1.603861 	 -1.588540 	 7.188600 
O 	 6.071678 	 3.462842 	 6.858249 
O 	 -2.528961 	 -6.525304 	 -5.137014 
O 	 6.142514 	 5.336387 	 -4.361111 
O 	 6.639618 	 -6.997891 	 -5.285080 
O 	 -2.121327 	 3.196579 	 -1.491069 
O 	 -1.060191 	 6.140377 	 2.770355 
O 	 2.427870 	 -1.423797 	 -1.832615 
O 	 -5.327775 	 -7.252411 	 -3.664586 
O 	 -6.489950 	 0.670446 	 1.040124 
O 	 1.509255 	 3.436402 	 5.682072 
O 	 6.228503 	 1.794833 	 -3.558589 
O 	 -7.500706 	 -4.991222 	 -7.021454 
O 	 4.519164 	 5.034515 	 -6.547665 
O 	 0.763248 	 2.005624 	 -1.644873 
O 	 -2.659107 	 -3.635606 	 -4.790781 
O 	 -0.659687 	 0.951395 	 0.801623 
O 	 0.593186 	 -2.538355 	 0.622722 
O 	 0.725869 	 0.714876 	 3.100943 
O 	 -4.811415 	 6.370963 	 -1.089437 
O 	 -0.624939 	 -0.728942 	 -1.429057 
O 	 -0.127859 	 5.529841 	 -5.205283 
O 	 7.020740 	 -7.072253 	 5.734108 
O 	 3.144018 	 0.210636 	 0.422114 
O 	 0.241448 	 6.903096 	 -3.043163 
O 	 -3.419871 	 -3.386574 	 -1.923868 
O 	 0.070110 	 -0.732021 	 -4.983486 
O 	 -3.877375 	 1.143863 	 -1.873862 
O 	 -7.432544 	 0.879214 	 5.454414 
O 	 -6.117408 	 -0.291816 	 -5.940916 
O 	 -6.977608 	 5.818960 	 7.529006 
O 	 6.787366 	 -3.867555 	 -3.980458 
O 	 -5.913807 	 4.979205 	 -4.774648 
O 	 7.211992 	 -0.625544 	 -1.037893 
O 	 -3.857860 	 4.136566 	 0.861221 
O 	 3.710191 	 -4.554828 	 -4.673314 
O 	 0.025676 	 -3.477808 	 -3.597689 
O 	 -1.130804 	 2.947132 	 7.008201 
O 	 -5.335636 	 -5.808418 	 0.893247 
O 	 -6.781920 	 3.269437 	 4.214123 
K 	 3.043401 	 5.942312 	 5.862170 
