333
conformation = 48
H 	 2.831618 	 -6.551077 	 0.458837 
H 	 2.858900 	 -5.330675 	 1.268872 
H 	 -0.706105 	 5.381865 	 5.979187 
H 	 0.472786 	 4.898529 	 5.096979 
H 	 4.555555 	 -6.584775 	 -7.021743 
H 	 4.489246 	 -5.470563 	 6.806979 
H 	 0.037226 	 -5.349273 	 -1.153627 
H 	 1.581729 	 -5.725798 	 -1.093163 
H 	 3.701205 	 7.044508 	 -3.903099 
H 	 3.228473 	 7.122854 	 -5.354889 
H 	 1.061675 	 6.430644 	 -6.370211 
H 	 1.706961 	 -6.985929 	 -6.702782 
H 	 7.022215 	 4.841936 	 -0.739456 
H 	 6.259237 	 6.112419 	 -1.266805 
H 	 3.308544 	 0.854347 	 -6.011680 
H 	 4.797917 	 0.804738 	 -6.505048 
H 	 6.742828 	 6.589580 	 2.755672 
H 	 6.358466 	 7.075603 	 4.277642 
H 	 4.770948 	 -0.917365 	 -6.396465 
H 	 6.006761 	 -1.854833 	 -6.215531 
H 	 -2.093548 	 -5.747864 	 0.039347 
H 	 -2.138650 	 -4.425758 	 -0.828599 
H 	 7.371010 	 0.888938 	 -6.250506 
H 	 6.514614 	 2.156181 	 -6.778692 
H 	 -2.994880 	 -1.222446 	 -6.998147 
H 	 -3.046978 	 -0.546287 	 -5.546658 
H 	 1.412241 	 0.584115 	 -4.398307 
H 	 2.612615 	 1.551147 	 -4.049231 
H 	 -4.146635 	 -5.561891 	 3.877644 
H 	 -5.080559 	 -4.366678 	 4.075315 
H 	 1.001018 	 -4.726454 	 -6.229435 
H 	 2.551586 	 -4.774307 	 -6.113864 
H 	 -1.843334 	 -7.603237 	 7.112172 
H 	 -2.988322 	 6.377802 	 7.063774 
H 	 5.257642 	 3.989079 	 4.773345 
H 	 4.444498 	 2.813390 	 4.364818 
H 	 -7.220271 	 3.402415 	 0.984916 
H 	 6.300387 	 2.736304 	 1.310737 
H 	 -5.050115 	 2.381244 	 3.186215 
H 	 -3.906298 	 2.633758 	 2.076366 
H 	 7.312947 	 -3.482951 	 1.152888 
H 	 7.318499 	 -2.715909 	 2.449681 
H 	 -3.646135 	 0.221263 	 2.863436 
H 	 -3.876502 	 -1.387141 	 2.639126 
H 	 2.598982 	 5.573442 	 0.607079 
H 	 1.282255 	 6.231651 	 0.107510 
H 	 4.023117 	 -4.367262 	 -2.378125 
H 	 4.011180 	 -4.819346 	 -0.832171 
H 	 -3.744497 	 4.840110 	 -4.016218 
H 	 -3.807251 	 5.526945 	 -2.635299 
H 	 -4.380123 	 -5.686140 	 -6.701209 
H 	 -5.230872 	 -4.687429 	 7.385121 
H 	 -6.241482 	 -2.261224 	 6.414496 
H 	 -7.148462 	 -3.164425 	 7.340789 
H 	 -3.792384 	 -3.541759 	 1.834896 
H 	 -5.350259 	 -3.257065 	 1.521996 
H 	 2.054616 	 -2.053945 	 4.286489 
H 	 2.446497 	 -1.955327 	 5.772866 
H 	 2.747317 	 3.319221 	 1.973757 
H 	 2.178816 	 4.063109 	 3.138945 
H 	 -1.026352 	 -5.149979 	 7.255518 
H 	 -0.128849 	 -5.851479 	 6.284718 
H 	 1.974123 	 2.989377 	 -5.180297 
H 	 1.580596 	 4.475218 	 -5.225034 
H 	 0.962643 	 -6.855962 	 3.436723 
H 	 0.168109 	 -7.609523 	 2.327384 
H 	 2.657991 	 0.369795 	 4.826537 
H 	 3.382949 	 0.775934 	 6.135831 
H 	 4.307836 	 5.303209 	 -2.273760 
H 	 2.997595 	 5.916890 	 -1.827827 
H 	 -0.610038 	 5.304000 	 0.074343 
H 	 -1.398077 	 6.622125 	 -0.129987 
H 	 4.891252 	 4.558341 	 1.901209 
H 	 4.897811 	 5.057245 	 0.346958 
H 	 -4.835775 	 6.462851 	 2.936231 
H 	 -3.795794 	 5.439504 	 2.638226 
H 	 -3.982254 	 2.462202 	 -5.650768 
H 	 -4.522315 	 2.709987 	 -7.029577 
H 	 -0.643509 	 0.973155 	 6.761954 
H 	 -1.147973 	 -0.355235 	 6.003987 
H 	 -5.405551 	 -1.944326 	 4.343944 
H 	 -4.302351 	 -2.377438 	 5.305985 
H 	 -0.771233 	 3.426918 	 -4.751223 
H 	 -0.139170 	 2.081746 	 -4.484761 
H 	 5.185750 	 -1.588817 	 -4.043395 
H 	 5.641440 	 -1.904369 	 -2.683566 
H 	 1.889966 	 -5.470132 	 6.344559 
H 	 1.487910 	 -4.781841 	 4.926043 
H 	 -5.118061 	 0.587686 	 -7.271406 
H 	 -5.693939 	 0.928795 	 6.202968 
H 	 -2.672218 	 7.021031 	 1.475558 
H 	 -3.758861 	 -6.817453 	 0.880426 
H 	 4.132859 	 -3.256906 	 5.134524 
H 	 5.392097 	 -3.984132 	 5.375136 
H 	 6.324754 	 -1.719907 	 6.207943 
H 	 4.956437 	 -1.341801 	 5.680060 
H 	 -4.781802 	 4.010038 	 0.516562 
H 	 -6.345500 	 3.750973 	 -1.027113 
H 	 4.497850 	 1.252799 	 -0.045757 
H 	 5.339101 	 2.212461 	 -1.001372 
H 	 7.112803 	 -6.236147 	 -2.027903 
H 	 5.614220 	 -6.133314 	 -2.116235 
H 	 -1.903446 	 -2.428047 	 5.612054 
H 	 -2.458582 	 -1.268853 	 4.550119 
H 	 -0.689294 	 2.672048 	 0.996557 
H 	 0.374724 	 3.449958 	 1.713261 
H 	 -2.224520 	 -0.268185 	 0.389052 
H 	 -3.328867 	 -1.457167 	 0.437835 
H 	 -3.893055 	 4.481426 	 5.795158 
H 	 -4.270754 	 5.880051 	 5.107493 
H 	 -0.306560 	 -2.937503 	 -6.897911 
H 	 -1.263156 	 -3.824897 	 -6.033919 
H 	 2.844518 	 -7.386309 	 3.027202 
H 	 4.321649 	 6.844834 	 3.264833 
H 	 -2.074472 	 -4.748605 	 3.076043 
H 	 -1.755610 	 -3.904561 	 1.837803 
H 	 -2.322289 	 -7.165185 	 3.796215 
H 	 -1.975002 	 -6.151666 	 4.931413 
H 	 -3.523551 	 2.493623 	 4.497562 
H 	 -3.764857 	 2.240906 	 5.987208 
H 	 -6.034436 	 -1.138026 	 -2.716203 
H 	 -6.236520 	 -2.353577 	 -3.560678 
H 	 -2.409249 	 1.331172 	 -4.393181 
H 	 -3.395603 	 0.711012 	 -3.475500 
H 	 0.933232 	 -3.292250 	 2.684517 
H 	 -0.045244 	 -3.453078 	 3.880051 
H 	 -7.310540 	 -0.432211 	 4.024276 
H 	 -6.970182 	 -0.416754 	 2.526329 
H 	 7.086030 	 -4.902324 	 3.352013 
H 	 7.057985 	 -5.587673 	 4.742602 
H 	 -6.900074 	 2.448306 	 -3.032432 
H 	 -5.434061 	 2.036896 	 -2.846221 
H 	 -5.263484 	 -4.303962 	 -2.296353 
H 	 -5.621218 	 -5.706330 	 -3.097364 
H 	 4.470416 	 2.339527 	 -3.163098 
H 	 3.373516 	 3.557014 	 -3.099988 
H 	 3.392132 	 -3.843254 	 3.394809 
H 	 4.536207 	 -4.806576 	 3.066292 
H 	 -6.464160 	 5.639819 	 1.011259 
H 	 -6.506003 	 7.145834 	 1.092731 
H 	 6.312754 	 -3.724293 	 -1.048884 
H 	 7.140007 	 -2.343894 	 -0.834207 
H 	 1.058786 	 -0.787436 	 7.054623 
H 	 2.312357 	 -1.284428 	 -7.153329 
H 	 6.906925 	 3.860202 	 6.954334 
H 	 5.498614 	 3.970933 	 7.450764 
H 	 -2.507618 	 -7.366284 	 -5.710305 
H 	 -2.959193 	 -6.792598 	 -4.332528 
H 	 7.084581 	 5.202983 	 -4.545538 
H 	 6.041060 	 5.378982 	 -3.397977 
H 	 7.149243 	 -7.110048 	 -4.456680 
H 	 5.689478 	 -7.192524 	 -5.002471 
H 	 -1.146205 	 2.960438 	 -1.646707 
H 	 -2.430516 	 3.674484 	 -2.262354 
H 	 -1.180059 	 5.298629 	 2.158951 
H 	 -0.850341 	 5.733648 	 3.727572 
H 	 3.299846 	 -1.625907 	 -2.256719 
H 	 2.481747 	 -2.237314 	 -1.245094 
H 	 -5.285471 	 7.015252 	 -2.838066 
H 	 -5.551306 	 6.944006 	 -4.387465 
H 	 -7.042801 	 1.439813 	 1.286970 
H 	 -5.587256 	 0.854608 	 1.280481 
H 	 2.057601 	 2.584759 	 5.533640 
H 	 0.848389 	 3.135088 	 6.350003 
H 	 6.421259 	 1.830900 	 -4.522952 
H 	 6.083378 	 0.775216 	 -3.411328 
H 	 -7.376204 	 -5.484115 	 7.046757 
H 	 6.856429 	 -5.626960 	 -6.461291 
H 	 3.700681 	 4.752749 	 -6.044434 
H 	 5.175315 	 5.313228 	 -5.973754 
H 	 1.650677 	 2.201855 	 -2.039494 
H 	 0.660519 	 1.007583 	 -1.877438 
H 	 -2.922965 	 -2.836239 	 -5.241422 
H 	 -3.235201 	 -4.327819 	 -5.247383 
H 	 -0.289074 	 0.585941 	 1.645301 
H 	 0.117480 	 1.092003 	 0.244397 
H 	 0.266097 	 -1.886797 	 0.008101 
H 	 0.473494 	 -3.420642 	 0.107153 
H 	 1.070956 	 1.583064 	 3.085483 
H 	 0.083365 	 0.643192 	 3.835202 
H 	 -4.144284 	 6.686741 	 -0.502339 
H 	 -5.142490 	 5.516535 	 -0.659632 
H 	 -1.561684 	 -0.757171 	 -1.242004 
H 	 -0.414418 	 -1.549855 	 -2.034884 
H 	 -0.833865 	 5.837938 	 -5.798818 
H 	 -0.113111 	 6.151323 	 -4.416442 
H 	 7.257125 	 7.164440 	 6.474792 
H 	 6.210520 	 -6.731551 	 6.103733 
H 	 2.864967 	 -0.514990 	 1.083260 
H 	 2.910005 	 -0.192347 	 -0.523423 
H 	 -0.164993 	 6.295859 	 -2.323755 
H 	 0.398176 	 -7.148928 	 -2.688334 
H 	 -3.252949 	 -3.377450 	 -2.921255 
H 	 -3.509288 	 -2.474312 	 -1.708514 
H 	 0.086756 	 -1.627632 	 -4.489184 
H 	 -0.810556 	 -0.803392 	 -5.397470 
H 	 -3.244995 	 1.881043 	 -1.737429 
H 	 -3.628154 	 0.426826 	 -1.204164 
H 	 6.619287 	 0.369304 	 5.707685 
H 	 7.348375 	 1.753677 	 5.053027 
H 	 -6.436186 	 -1.107549 	 -6.524119 
H 	 -6.053478 	 -0.721557 	 -5.049349 
H 	 -6.852925 	 6.155736 	 -6.480344 
H 	 -6.013641 	 5.655100 	 7.180458 
H 	 -7.367022 	 -4.274012 	 -3.525470 
H 	 7.081368 	 -3.811519 	 -4.922062 
H 	 -6.037265 	 4.222077 	 -4.084514 
H 	 -5.576511 	 4.408871 	 -5.531039 
H 	 6.350788 	 -0.109102 	 -0.967353 
H 	 -7.190228 	 -0.399534 	 -0.188210 
H 	 -3.235776 	 4.250787 	 0.144358 
H 	 -7.208256 	 3.253064 	 3.298722 
H 	 4.455994 	 -4.007643 	 -4.722044 
H 	 3.998467 	 -5.538713 	 -4.676376 
H 	 0.319054 	 -4.310768 	 -3.127255 
H 	 -0.811868 	 -3.668139 	 -4.024177 
H 	 -1.707876 	 2.950299 	 -7.075267 
H 	 -1.692392 	 2.941136 	 6.205452 
H 	 -5.484201 	 -5.470599 	 1.822724 
H 	 -5.424087 	 -5.102238 	 0.308260 
H 	 -6.669123 	 4.116349 	 4.540093 
O 	 2.905058 	 -5.567375 	 0.312501 
O 	 -0.137366 	 5.629237 	 5.225699 
O 	 4.684844 	 -6.409226 	 6.933100 
O 	 0.836479 	 -5.594340 	 -1.722957 
O 	 3.771348 	 -7.275535 	 -4.692397 
O 	 1.859624 	 6.945520 	 -6.731589 
O 	 6.141619 	 5.139479 	 -1.215899 
O 	 3.875634 	 0.603737 	 -6.763968 
O 	 6.050985 	 6.596643 	 3.474978 
O 	 5.087918 	 -1.695214 	 -5.893274 
O 	 -1.580120 	 -4.967209 	 -0.230136 
O 	 6.537353 	 1.421415 	 -6.156531 
O 	 -2.668036 	 -1.336439 	 -6.070825 
O 	 1.951518 	 1.298608 	 -4.736077 
O 	 -5.086872 	 -5.325873 	 3.776615 
O 	 1.793708 	 -5.221738 	 -6.560639 
O 	 -2.200235 	 6.496511 	 -7.326592 
O 	 4.441317 	 3.798252 	 4.220342 
O 	 7.234116 	 2.834857 	 1.683199 
O 	 -4.209240 	 2.013308 	 2.855234 
O 	 -7.235673 	 -3.542214 	 2.060477 
O 	 -3.212872 	 -0.682726 	 2.973999 
O 	 2.263191 	 6.336629 	 0.043140 
O 	 4.580384 	 -4.487832 	 -1.556981 
O 	 -3.153707 	 5.121162 	 -3.298686 
O 	 -4.348967 	 -4.870300 	 -7.166278 
O 	 -6.974813 	 -2.224123 	 7.067509 
O 	 -4.454304 	 -3.263460 	 1.152934 
O 	 2.842434 	 -1.910879 	 4.827804 
O 	 1.896400 	 3.451914 	 2.410395 
O 	 -1.024718 	 -5.970478 	 6.647909 
O 	 2.293632 	 3.873974 	 -5.496851 
O 	 0.801409 	 -6.871232 	 2.484723 
O 	 3.136968 	 1.082825 	 5.284651 
O 	 3.472704 	 5.578350 	 -2.645365 
O 	 -0.658234 	 6.110609 	 -0.424044 
O 	 4.344126 	 4.871718 	 1.144707 
O 	 -3.886444 	 6.266528 	 3.175948 
O 	 -4.333302 	 3.177499 	 -6.160028 
O 	 -0.357751 	 0.242149 	 6.164828 
O 	 -5.157184 	 -2.687670 	 4.970086 
O 	 -0.985367 	 2.451322 	 -4.666946 
O 	 5.179112 	 -1.190745 	 -3.165129 
O 	 1.460483 	 -5.606461 	 5.462277 
O 	 -4.846978 	 0.972657 	 6.743653 
O 	 -2.937729 	 -7.364580 	 0.721511 
O 	 4.628235 	 -3.672308 	 5.863759 
O 	 5.760320 	 -0.924352 	 6.102189 
O 	 -6.400962 	 4.159249 	 -0.137016 
O 	 5.400485 	 1.541714 	 -0.307161 
O 	 6.312388 	 -6.800012 	 -1.977948 
O 	 -2.483649 	 -1.621163 	 5.480500 
O 	 -0.460274 	 3.597581 	 1.158393 
O 	 -2.927771 	 -0.725248 	 -0.082958 
O 	 -4.388911 	 5.341198 	 5.955080 
O 	 -0.502388 	 -3.858141 	 -6.636088 
O 	 3.408394 	 7.011825 	 3.614407 
O 	 -2.263540 	 -3.868480 	 2.664909 
O 	 -2.268785 	 -6.224486 	 4.011563 
O 	 -3.294400 	 2.859773 	 5.369447 
O 	 -5.650385 	 -1.578481 	 -3.479466 
O 	 -3.196546 	 0.705869 	 -4.448856 
O 	 0.884281 	 -3.511023 	 3.655797 
O 	 -6.837311 	 -0.909127 	 3.354822 
O 	 6.528311 	 -4.974648 	 4.151500 
O 	 -5.962673 	 2.816528 	 -3.074081 
O 	 -5.888221 	 -4.806825 	 -2.845934 
O 	 3.560161 	 2.601290 	 -2.943865 
O 	 3.723179 	 -4.397435 	 2.679157 
O 	 -6.668319 	 6.373938 	 1.650208 
O 	 7.190013 	 -3.320212 	 -0.781199 
O 	 1.609606 	 -1.635354 	 7.186653 
O 	 6.060357 	 3.420688 	 6.855833 
O 	 -2.518941 	 -6.573868 	 -5.139331 
O 	 6.144709 	 5.289269 	 -4.368898 
O 	 6.641610 	 -7.038345 	 -5.288616 
O 	 -2.119817 	 3.153810 	 -1.482853 
O 	 -1.055092 	 6.092318 	 2.771441 
O 	 2.437905 	 -1.469028 	 -1.836906 
O 	 -5.320755 	 -7.295750 	 -3.666555 
O 	 -6.500944 	 0.623660 	 1.035129 
O 	 1.503771 	 3.400427 	 5.696281 
O 	 6.239728 	 1.754563 	 -3.557499 
O 	 -7.502896 	 -5.029837 	 -7.023617 
O 	 4.518137 	 4.985733 	 -6.546911 
O 	 0.754349 	 1.957090 	 -1.647118 
O 	 -2.666143 	 -3.689236 	 -4.804837 
O 	 -0.668003 	 0.907520 	 0.787898 
O 	 0.601857 	 -2.591925 	 0.625226 
O 	 0.732467 	 0.671123 	 3.099384 
O 	 -4.813345 	 6.330914 	 -1.083833 
O 	 -0.623910 	 -0.784897 	 -1.430125 
O 	 -0.132303 	 5.484462 	 -5.212473 
O 	 7.008446 	 -7.112866 	 5.734798 
O 	 3.149171 	 0.169967 	 0.418770 
O 	 0.250106 	 6.855638 	 -3.047773 
O 	 -3.410255 	 -3.432821 	 -1.916827 
O 	 0.067285 	 -0.779123 	 -4.990303 
O 	 -3.877374 	 1.105933 	 -1.872501 
O 	 -7.430178 	 0.839778 	 5.453928 
O 	 -6.123891 	 -0.337005 	 -5.940518 
O 	 -6.978421 	 5.772876 	 7.524510 
O 	 6.790047 	 -3.912459 	 -3.992290 
O 	 -5.910132 	 4.942852 	 -4.782974 
O 	 7.204574 	 -0.664638 	 -1.032314 
O 	 -3.862367 	 4.088046 	 0.868936 
O 	 3.707379 	 -4.600549 	 -4.675250 
O 	 0.024489 	 -3.519179 	 -3.608742 
O 	 -1.130837 	 2.902335 	 7.002904 
O 	 -5.337087 	 -5.853372 	 0.896337 
O 	 -6.774054 	 3.222921 	 4.204762 
K 	 3.046297 	 5.899310 	 5.858683 
