333
conformation = 31
H 	 2.850508 	 -6.393606 	 0.426639 
H 	 2.739184 	 -4.879952 	 1.165978 
H 	 -0.719863 	 5.531642 	 5.996562 
H 	 0.407615 	 5.056650 	 5.177726 
H 	 4.701221 	 -6.350089 	 -6.913292 
H 	 4.307772 	 -5.339218 	 6.875963 
H 	 0.164615 	 -5.204016 	 -0.952961 
H 	 1.676337 	 -5.343391 	 -1.143311 
H 	 3.776785 	 7.225264 	 -3.907380 
H 	 3.215049 	 7.296832 	 -5.375541 
H 	 1.044133 	 6.650667 	 -6.330442 
H 	 1.614215 	 -6.831223 	 -6.595674 
H 	 6.872789 	 4.911583 	 -0.693685 
H 	 6.379931 	 6.332352 	 -1.248274 
H 	 3.245988 	 0.821027 	 -6.003814 
H 	 4.669202 	 1.232008 	 -6.502919 
H 	 6.695385 	 6.960650 	 2.752514 
H 	 6.228574 	 -7.376111 	 4.041575 
H 	 4.749860 	 -0.863489 	 -6.462139 
H 	 5.985978 	 -1.703084 	 -6.157758 
H 	 -2.126706 	 -5.420475 	 0.122649 
H 	 -2.223222 	 -4.136390 	 -0.726929 
H 	 7.343141 	 1.082506 	 -6.126116 
H 	 6.518489 	 2.236428 	 -6.862924 
H 	 -3.049784 	 -0.988111 	 -6.936104 
H 	 -2.962366 	 -0.358125 	 -5.447875 
H 	 1.301736 	 0.739497 	 -4.291721 
H 	 2.504434 	 1.743625 	 -3.981314 
H 	 -4.153556 	 -5.480097 	 3.862315 
H 	 -5.108219 	 -4.337182 	 4.367800 
H 	 1.023149 	 -4.506015 	 -6.539166 
H 	 2.511595 	 -4.638061 	 -6.080356 
H 	 -1.965526 	 -7.292993 	 7.260561 
H 	 -2.996222 	 6.320414 	 7.096665 
H 	 5.135347 	 4.103559 	 4.863599 
H 	 4.160054 	 2.993379 	 4.318927 
H 	 -7.217491 	 3.476243 	 0.777611 
H 	 6.345818 	 2.695229 	 1.354405 
H 	 -5.230444 	 2.438744 	 3.114871 
H 	 -4.143692 	 2.834380 	 2.044331 
H 	 7.362794 	 -3.319877 	 1.068079 
H 	 -7.228704 	 -2.395343 	 2.360640 
H 	 -3.884864 	 0.272763 	 2.803470 
H 	 -3.783686 	 -1.290783 	 2.675941 
H 	 2.561160 	 5.949065 	 0.688719 
H 	 1.196541 	 6.471294 	 0.010534 
H 	 4.031323 	 -4.574584 	 -2.405768 
H 	 4.035335 	 -4.654776 	 -0.871949 
H 	 -3.642116 	 5.312288 	 -4.091064 
H 	 -3.906331 	 5.698002 	 -2.592243 
H 	 -4.400042 	 -5.566955 	 -6.806472 
H 	 -5.194874 	 -4.610750 	 7.306066 
H 	 -6.383262 	 -2.017303 	 6.330322 
H 	 -7.145210 	 -3.050013 	 7.261688 
H 	 -4.024413 	 -3.365160 	 2.003630 
H 	 -5.368500 	 -2.913643 	 1.420149 
H 	 2.117507 	 -1.784796 	 4.210997 
H 	 2.324903 	 -1.677214 	 5.722223 
H 	 2.644584 	 3.575578 	 1.941698 
H 	 2.059324 	 4.297777 	 3.173984 
H 	 -1.142404 	 -5.023993 	 7.282752 
H 	 -0.262113 	 -5.787709 	 6.185940 
H 	 2.038858 	 3.102924 	 -5.445493 
H 	 1.435683 	 4.589968 	 -5.299802 
H 	 0.792667 	 -6.580897 	 3.454942 
H 	 0.297041 	 -7.440075 	 2.331895 
H 	 2.695010 	 0.508966 	 4.928225 
H 	 3.345457 	 0.958700 	 6.208171 
H 	 4.189765 	 5.468424 	 -2.227512 
H 	 2.739308 	 5.876970 	 -1.824814 
H 	 -0.853591 	 5.419974 	 -0.108057 
H 	 -1.529742 	 6.736256 	 -0.282821 
H 	 4.860077 	 4.771428 	 1.949350 
H 	 4.996701 	 5.403858 	 0.536373 
H 	 -4.853217 	 6.572128 	 2.852606 
H 	 -3.631841 	 5.596461 	 2.820945 
H 	 -4.446732 	 2.797545 	 -5.380429 
H 	 -4.612699 	 2.737215 	 -6.936673 
H 	 -0.441943 	 1.463480 	 6.445802 
H 	 -1.310154 	 0.227947 	 6.076094 
H 	 -5.554212 	 -1.667107 	 4.413642 
H 	 -4.340190 	 -2.374594 	 5.176521 
H 	 -0.867722 	 3.654473 	 -4.604208 
H 	 -0.282739 	 2.257041 	 -4.369556 
H 	 5.224072 	 -0.953122 	 -4.123570 
H 	 5.494955 	 -1.744969 	 -2.821424 
H 	 1.866042 	 -5.078656 	 6.179530 
H 	 1.288100 	 -4.720987 	 4.811967 
H 	 -4.937989 	 0.778358 	 -7.163550 
H 	 -5.703420 	 1.127502 	 6.424913 
H 	 -2.841424 	 -7.332665 	 1.691118 
H 	 -3.818591 	 -6.665897 	 0.875343 
H 	 3.864419 	 -2.936744 	 5.484556 
H 	 5.170173 	 -3.763709 	 5.021407 
H 	 6.462338 	 -1.410919 	 6.153131 
H 	 4.890030 	 -1.227795 	 5.776629 
H 	 -4.776193 	 4.215834 	 0.430137 
H 	 -6.339127 	 3.946827 	 -1.027973 
H 	 4.582201 	 1.034617 	 -0.254820 
H 	 5.034214 	 2.308708 	 -1.005340 
H 	 7.035414 	 -6.034016 	 -2.044262 
H 	 5.502635 	 -6.078411 	 -1.979905 
H 	 -2.162411 	 -2.349995 	 5.248457 
H 	 -2.755425 	 -1.131636 	 4.611107 
H 	 -0.940528 	 3.061340 	 0.959144 
H 	 0.295184 	 3.548500 	 1.864479 
H 	 -2.333861 	 -0.104860 	 0.504748 
H 	 -3.482751 	 -1.125887 	 0.571150 
H 	 -4.188111 	 4.633749 	 5.622129 
H 	 -4.194771 	 6.113483 	 5.064055 
H 	 -0.174891 	 -2.798360 	 -6.592260 
H 	 -1.415024 	 -3.559348 	 -6.028231 
H 	 3.023851 	 -7.192472 	 2.986442 
H 	 4.291160 	 6.930162 	 3.193470 
H 	 -2.242077 	 -4.669836 	 2.816249 
H 	 -1.727423 	 -3.528706 	 1.838229 
H 	 -2.737152 	 -6.894047 	 3.895419 
H 	 -2.019035 	 -6.027810 	 4.976546 
H 	 -3.555894 	 2.782004 	 4.436556 
H 	 -3.872546 	 2.312245 	 5.905733 
H 	 -6.021728 	 -1.053674 	 -2.689833 
H 	 -6.056004 	 -2.349567 	 -3.462733 
H 	 -2.519136 	 1.535260 	 -4.513867 
H 	 -3.599148 	 0.839757 	 -3.520327 
H 	 0.936456 	 -3.474363 	 2.668649 
H 	 -0.089469 	 -3.421262 	 3.680048 
H 	 -7.348628 	 -0.227836 	 3.958913 
H 	 -6.821219 	 -0.259534 	 2.526285 
H 	 7.018452 	 -4.671903 	 3.268120 
H 	 7.029758 	 -5.235924 	 4.754378 
H 	 -6.940583 	 2.557502 	 -3.140245 
H 	 -5.329859 	 2.336685 	 -3.041422 
H 	 -5.145007 	 -4.259906 	 -2.377800 
H 	 -5.613617 	 -5.416682 	 -3.177117 
H 	 4.510004 	 2.619218 	 -3.066351 
H 	 3.451574 	 3.649785 	 -3.162211 
H 	 3.343013 	 -3.645785 	 3.405082 
H 	 4.329708 	 -4.799115 	 3.038519 
H 	 -6.923962 	 5.801242 	 1.037830 
H 	 -6.580328 	 -7.531230 	 1.143859 
H 	 6.290735 	 -3.564559 	 -1.058636 
H 	 6.971978 	 -2.211124 	 -1.048835 
H 	 0.923829 	 -0.732566 	 7.129808 
H 	 2.438796 	 -1.123537 	 -7.220370 
H 	 6.749416 	 4.188325 	 6.866623 
H 	 5.282341 	 4.154076 	 7.321127 
H 	 -2.470379 	 -7.306511 	 -5.615797 
H 	 -2.827473 	 -6.693594 	 -4.265354 
H 	 7.086113 	 5.378602 	 -4.377249 
H 	 5.868242 	 5.581397 	 -3.436919 
H 	 7.136373 	 -7.101716 	 -4.527324 
H 	 5.743383 	 -7.315107 	 -5.144581 
H 	 -1.248657 	 3.123038 	 -1.577778 
H 	 -2.406040 	 3.934790 	 -2.214612 
H 	 -1.402891 	 5.426603 	 2.296562 
H 	 -0.724816 	 5.875498 	 3.657743 
H 	 3.140036 	 -1.315544 	 -2.544273 
H 	 2.590636 	 -2.019388 	 -1.152358 
H 	 -5.407688 	 -7.438510 	 -2.689615 
H 	 -5.350846 	 6.911675 	 -4.206323 
H 	 -7.088273 	 1.673690 	 1.222057 
H 	 -5.680107 	 0.998830 	 1.238885 
H 	 1.940828 	 2.830368 	 5.545249 
H 	 0.963437 	 3.421312 	 6.596627 
H 	 6.279058 	 1.860631 	 -4.494194 
H 	 5.930133 	 1.075499 	 -3.200645 
H 	 7.334592 	 -5.593416 	 7.256979 
H 	 7.212437 	 -5.294990 	 -6.184112 
H 	 3.567179 	 4.844026 	 -6.206716 
H 	 4.923185 	 5.219044 	 -5.718047 
H 	 1.648579 	 2.422902 	 -1.700643 
H 	 0.654452 	 1.144116 	 -1.867966 
H 	 -2.992071 	 -2.711978 	 -5.265492 
H 	 -3.259641 	 -4.245488 	 -5.323408 
H 	 -0.341032 	 0.882013 	 1.582780 
H 	 -0.045166 	 1.292937 	 0.067569 
H 	 0.087688 	 -1.973514 	 -0.039847 
H 	 0.379808 	 -3.424331 	 0.448938 
H 	 1.197518 	 1.730211 	 3.028380 
H 	 0.178675 	 0.948995 	 3.871957 
H 	 -4.041879 	 6.855272 	 -0.639395 
H 	 -5.278805 	 5.881702 	 -0.465097 
H 	 -1.567481 	 -0.942866 	 -1.365090 
H 	 -0.384617 	 -1.164380 	 -2.291329 
H 	 -0.910127 	 6.002162 	 -5.859063 
H 	 -0.166997 	 6.263845 	 -4.402245 
H 	 7.237579 	 7.268852 	 6.359020 
H 	 6.057079 	 -6.604775 	 6.260908 
H 	 2.919406 	 -0.419590 	 0.949170 
H 	 2.704887 	 0.048750 	 -0.492085 
H 	 -0.174939 	 6.669530 	 -2.180162 
H 	 0.276812 	 -6.941751 	 -2.887537 
H 	 -2.913157 	 -3.101090 	 -2.738041 
H 	 -3.706841 	 -2.406649 	 -1.432311 
H 	 0.106455 	 -1.399912 	 -4.473538 
H 	 -0.907878 	 -0.648486 	 -5.379192 
H 	 -3.266634 	 2.085111 	 -1.672312 
H 	 -3.685847 	 0.714863 	 -1.166850 
H 	 6.528397 	 0.639669 	 5.534035 
H 	 7.341480 	 1.929175 	 5.118952 
H 	 -6.476832 	 -0.860309 	 -6.603892 
H 	 -6.009402 	 -0.609523 	 -5.122171 
H 	 -6.962353 	 6.075117 	 -6.443835 
H 	 -6.069466 	 5.904484 	 7.077575 
H 	 -7.432077 	 -4.005490 	 -3.545042 
H 	 7.119032 	 -3.775532 	 -4.954363 
H 	 -5.849619 	 4.435217 	 -4.115074 
H 	 -5.658180 	 4.658873 	 -5.601541 
H 	 6.356552 	 0.164594 	 -1.160193 
H 	 -7.318636 	 0.050669 	 -0.222608 
H 	 -3.272841 	 4.502215 	 0.313507 
H 	 -7.309224 	 3.608739 	 3.347537 
H 	 4.461121 	 -3.901402 	 -4.805534 
H 	 3.926409 	 -5.330882 	 -4.625425 
H 	 0.345542 	 -3.948779 	 -3.065471 
H 	 -0.778403 	 -3.757288 	 -4.003905 
H 	 -1.523572 	 3.027192 	 -6.979493 
H 	 -1.942354 	 3.041183 	 6.458306 
H 	 -5.475298 	 -5.201496 	 1.763678 
H 	 -5.579402 	 -5.036882 	 0.215584 
H 	 -6.494541 	 4.216405 	 4.505763 
O 	 2.860185 	 -5.415729 	 0.342155 
O 	 -0.218909 	 5.786676 	 5.158449 
O 	 4.611969 	 -6.254403 	 7.052193 
O 	 0.853442 	 -5.398796 	 -1.644200 
O 	 3.763275 	 -7.133813 	 -4.715332 
O 	 1.832735 	 7.107709 	 -6.730925 
O 	 6.155431 	 5.385254 	 -1.242945 
O 	 3.844769 	 0.825386 	 -6.774793 
O 	 6.033867 	 6.781544 	 3.488200 
O 	 5.073608 	 -1.569143 	 -5.839827 
O 	 -1.592905 	 -4.707562 	 -0.248903 
O 	 6.498280 	 1.607762 	 -6.120910 
O 	 -2.758992 	 -1.166516 	 -6.047005 
O 	 1.903815 	 1.392203 	 -4.675640 
O 	 -5.066458 	 -5.195335 	 3.871539 
O 	 1.781571 	 -5.089630 	 -6.551089 
O 	 -2.253159 	 6.721034 	 -7.364939 
O 	 4.377158 	 3.945206 	 4.254959 
O 	 7.204015 	 3.038848 	 1.621469 
O 	 -4.326467 	 2.197850 	 2.829905 
O 	 -7.234713 	 -3.316018 	 2.000650 
O 	 -3.244359 	 -0.501229 	 2.886331 
O 	 2.187954 	 6.502285 	 0.029517 
O 	 4.526103 	 -4.260774 	 -1.608506 
O 	 -3.252411 	 5.317873 	 -3.212758 
O 	 -4.337499 	 -4.652130 	 -7.152512 
O 	 -7.029184 	 -2.055402 	 7.092670 
O 	 -4.444177 	 -3.074135 	 1.151750 
O 	 2.842920 	 -1.679490 	 4.841377 
O 	 1.868579 	 3.608476 	 2.509962 
O 	 -1.109924 	 -5.780879 	 6.671704 
O 	 2.279864 	 4.054507 	 -5.505462 
O 	 0.862378 	 -6.639996 	 2.486360 
O 	 3.144515 	 1.272623 	 5.320356 
O 	 3.358204 	 5.728070 	 -2.629172 
O 	 -0.697168 	 6.273542 	 -0.425138 
O 	 4.293213 	 5.040828 	 1.147067 
O 	 -3.981460 	 6.381129 	 3.255133 
O 	 -4.321375 	 3.340969 	 -6.179390 
O 	 -0.356290 	 0.492818 	 6.180120 
O 	 -5.280275 	 -2.451536 	 4.919211 
O 	 -1.052704 	 2.708666 	 -4.671106 
O 	 5.150910 	 -0.929662 	 -3.163806 
O 	 1.398751 	 -5.487877 	 5.419198 
O 	 -4.792278 	 1.120727 	 6.787096 
O 	 -2.979862 	 -7.192543 	 0.766930 
O 	 4.601856 	 -3.494821 	 5.799561 
O 	 5.688250 	 -0.784202 	 6.086726 
O 	 -6.415787 	 4.339617 	 -0.140860 
O 	 5.334388 	 1.719330 	 -0.315129 
O 	 6.295488 	 -6.665102 	 -1.941509 
O 	 -2.529381 	 -1.430857 	 5.530536 
O 	 -0.409757 	 3.790820 	 1.181813 
O 	 -3.002444 	 -0.543471 	 -0.094548 
O 	 -4.465493 	 5.558526 	 5.915588 
O 	 -0.592543 	 -3.646493 	 -6.608351 
O 	 3.413876 	 7.129290 	 3.601601 
O 	 -2.247718 	 -3.693561 	 2.657355 
O 	 -2.288320 	 -6.050064 	 4.021519 
O 	 -3.376848 	 3.014032 	 5.358312 
O 	 -5.725995 	 -1.438352 	 -3.534840 
O 	 -3.214687 	 0.865164 	 -4.429904 
O 	 0.887680 	 -3.272209 	 3.619527 
O 	 -6.880697 	 -0.793999 	 3.342444 
O 	 6.483750 	 -4.741230 	 4.064949 
O 	 -6.037888 	 3.021277 	 -3.078575 
O 	 -5.952519 	 -4.584237 	 -2.831941 
O 	 3.536430 	 2.666422 	 -2.994070 
O 	 3.660783 	 -4.203835 	 2.636056 
O 	 -6.777915 	 6.558175 	 1.677038 
O 	 7.125264 	 -3.116018 	 -0.750066 
O 	 1.616335 	 -1.445738 	 7.202485 
O 	 5.947091 	 3.615918 	 6.845504 
O 	 -2.495337 	 -6.421843 	 -5.151536 
O 	 6.113775 	 5.449468 	 -4.394047 
O 	 6.599302 	 -6.831301 	 -5.289842 
O 	 -2.166753 	 3.359151 	 -1.424466 
O 	 -1.079555 	 6.240804 	 2.766275 
O 	 2.473964 	 -1.300311 	 -1.853702 
O 	 -5.321642 	 -7.144467 	 -3.661337 
O 	 -6.616354 	 0.786315 	 1.026483 
O 	 1.430269 	 3.655379 	 5.794072 
O 	 6.265505 	 1.951658 	 -3.516523 
O 	 7.340937 	 -4.807842 	 -7.037431 
O 	 4.458586 	 5.156849 	 -6.543282 
O 	 0.671959 	 2.105988 	 -1.670581 
O 	 -2.749118 	 -3.570544 	 -4.875636 
O 	 -0.749324 	 1.085897 	 0.715026 
O 	 0.627029 	 -2.480904 	 0.646547 
O 	 0.736271 	 0.871502 	 3.110061 
O 	 -4.868687 	 6.546669 	 -1.055010 
O 	 -0.624662 	 -0.701653 	 -1.449095 
O 	 -0.219213 	 5.664064 	 -5.251398 
O 	 6.875999 	 -6.886297 	 5.779760 
O 	 3.119297 	 0.374216 	 0.393147 
O 	 0.251229 	 7.003467 	 -3.040555 
O 	 -3.385278 	 -3.252998 	 -1.868362 
O 	 0.003516 	 -0.617275 	 -5.022945 
O 	 -3.929453 	 1.345182 	 -1.869870 
O 	 -7.441702 	 1.044952 	 5.464265 
O 	 -6.225809 	 -0.151103 	 -5.946551 
O 	 -6.992098 	 5.949255 	 7.497546 
O 	 6.751274 	 -3.713786 	 -4.082777 
O 	 -5.938619 	 5.181749 	 -4.819404 
O 	 7.106933 	 -0.440519 	 -0.978453 
O 	 -3.939394 	 4.242111 	 0.964239 
O 	 3.632948 	 -4.403476 	 -4.673618 
O 	 -0.017965 	 -3.279902 	 -3.671911 
O 	 -1.155215 	 3.078249 	 6.999415 
O 	 -5.409809 	 -5.679374 	 0.928765 
O 	 -6.752979 	 3.372060 	 4.141380 
K 	 3.023140 	 6.094175 	 5.852465 
