333
conformation = 2
H 	 56.822697 	 169.191163 	 -443.821010 
H 	 57.568222 	 -829.464028 	 -443.136041 
H 	 68.423911 	 166.593560 	 -438.434567 
H 	 69.217213 	 165.395060 	 -438.909158 
H 	 59.277976 	 169.389857 	 548.961581 
H 	 58.979954 	 170.073109 	 -437.511563 
H 	 -930.609063 	 -829.787642 	 -445.396587 
H 	 55.978395 	 -829.707639 	 -445.096326 
H 	 58.047137 	 167.697517 	 551.726330 
H 	 57.622044 	 168.111360 	 550.257076 
H 	 55.586425 	 167.369527 	 549.611669 
H 	 56.081557 	 168.667326 	 548.988522 
H 	 61.492584 	 165.639974 	 554.568692 
H 	 60.836387 	 167.100929 	 554.287752 
H 	 57.604929 	 161.770800 	 549.640881 
H 	 59.110871 	 161.758925 	 549.172317 
H 	 61.264464 	 167.392131 	 -441.465534 
H 	 60.844496 	 168.012188 	 -440.193986 
H 	 59.150493 	 159.553733 	 549.285771 
H 	 60.398916 	 158.679220 	 549.575041 
H 	 67.405992 	 170.160845 	 -444.118284 
H 	 67.088705 	 -828.680455 	 -445.087806 
H 	 61.574854 	 161.492408 	 549.567147 
H 	 61.079682 	 162.853236 	 548.875523 
H 	 66.374121 	 159.600193 	 548.775786 
H 	 66.118427 	 160.239486 	 550.289243 
H 	 55.721196 	 161.065916 	 551.037264 
H 	 56.753053 	 161.982566 	 551.967655 
H 	 65.263172 	 170.144034 	 -440.003700 
H 	 64.008918 	 -828.914205 	 -439.968093 
H 	 -929.749778 	 -829.366957 	 549.221403 
H 	 56.709934 	 -829.294571 	 549.917761 
H 	 67.401472 	 168.194286 	 -437.164707 
H 	 66.314418 	 166.941800 	 -437.244023 
H 	 59.442721 	 164.352181 	 -439.275290 
H 	 58.160022 	 163.737975 	 -439.873338 
H 	 62.181608 	 164.250634 	 -443.409382 
H 	 60.791116 	 163.605283 	 -443.287151 
H 	 64.026482 	 163.166069 	 -441.072602 
H 	 65.093745 	 163.594650 	 -442.160741 
H 	 61.698263 	 -827.628484 	 -443.272163 
H 	 62.021747 	 158.155945 	 -441.849842 
H 	 65.425124 	 160.847299 	 -441.512211 
H 	 65.562987 	 159.343302 	 -441.728657 
H 	 57.053562 	 166.756416 	 -443.621979 
H 	 55.581423 	 167.134769 	 -444.190111 
H 	 58.528860 	 -828.820399 	 553.132042 
H 	 58.302186 	 -829.192343 	 554.594838 
H 	 65.823650 	 166.265092 	 551.758735 
H 	 65.331742 	 166.326763 	 553.239028 
H 	 65.304542 	 169.919633 	 548.653140 
H 	 64.088839 	 -829.201777 	 548.480263 
H 	 62.899558 	 158.318833 	 -437.950058 
H 	 62.011776 	 157.551370 	 548.227700 
H 	 65.456705 	 -827.989585 	 -442.510204 
H 	 63.997304 	 -827.604995 	 -442.902828 
H 	 56.692527 	 158.762489 	 -440.157140 
H 	 56.658723 	 159.142716 	 -438.649053 
H 	 56.932214 	 164.387713 	 -442.367849 
H 	 56.635789 	 164.837160 	 -440.933873 
H 	 68.122485 	 -829.443095 	 -437.203171 
H 	 69.003648 	 169.442271 	 -437.922582 
H 	 56.522800 	 163.697629 	 550.086076 
H 	 55.778826 	 165.147474 	 550.043280 
H 	 -929.965387 	 169.203828 	 -440.889671 
H 	 -930.271036 	 168.258259 	 -442.010563 
H 	 57.738683 	 161.055568 	 -439.227456 
H 	 58.003880 	 161.852745 	 -437.998940 
H 	 58.382872 	 166.254154 	 553.853810 
H 	 56.864644 	 166.638216 	 553.620478 
H 	 68.482360 	 165.937305 	 -444.496194 
H 	 67.863565 	 167.283133 	 -444.273290 
H 	 59.090021 	 165.816010 	 -442.202413 
H 	 59.482532 	 165.799752 	 -443.705586 
H 	 64.408741 	 166.883753 	 -441.463989 
H 	 65.915128 	 166.429209 	 -441.342073 
H 	 64.650431 	 163.557058 	 550.391548 
H 	 64.776312 	 163.229238 	 548.841210 
H 	 68.826243 	 162.231116 	 -437.924025 
H 	 68.169812 	 160.871556 	 -438.068776 
H 	 63.456933 	 158.694841 	 -440.155357 
H 	 64.711450 	 158.741697 	 -439.119071 
H 	 68.325265 	 164.407039 	 551.089778 
H 	 69.082341 	 163.072297 	 551.317399 
H 	 59.340531 	 159.906688 	 551.600605 
H 	 60.027486 	 159.012602 	 552.639870 
H 	 56.222112 	 -829.707275 	 -438.159602 
H 	 55.701863 	 -829.268609 	 -439.502198 
H 	 64.591279 	 161.037648 	 548.501101 
H 	 63.738931 	 161.569159 	 -437.772420 
H 	 66.575665 	 168.111015 	 -442.540124 
H 	 65.509624 	 168.902638 	 -443.196671 
H 	 58.187291 	 157.531867 	 -438.691084 
H 	 59.569023 	 -828.248026 	 -439.407136 
H 	 60.705835 	 159.312745 	 -437.691682 
H 	 59.511410 	 159.214868 	 -438.763370 
H 	 64.415935 	 164.893387 	 -443.660638 
H 	 63.139000 	 164.361470 	 -445.183494 
H 	 59.163657 	 161.760562 	 -444.011354 
H 	 58.984958 	 162.851876 	 -445.023203 
H 	 61.521540 	 169.397033 	 553.712979 
H 	 60.076441 	 169.299385 	 554.290394 
H 	 67.291746 	 158.551961 	 -439.235586 
H 	 66.672061 	 159.805013 	 -439.472102 
H 	 68.573289 	 163.621490 	 -443.173608 
H 	 -930.182709 	 164.445406 	 -442.639391 
H 	 66.936235 	 160.561144 	 -443.857561 
H 	 65.879599 	 159.530455 	 -443.604970 
H 	 65.110041 	 165.302721 	 -438.381860 
H 	 64.746471 	 166.427621 	 -439.460510 
H 	 69.236599 	 157.814286 	 549.264764 
H 	 67.963691 	 -828.089594 	 549.865046 
H 	 57.329528 	 168.166494 	 -441.386119 
H 	 58.821492 	 167.807655 	 -441.060315 
H 	 67.280896 	 -829.121090 	 -441.383500 
H 	 67.459632 	 -828.069706 	 -442.582726 
H 	 66.789593 	 168.460708 	 -440.162429 
H 	 67.380707 	 169.648993 	 -439.322571 
H 	 65.900077 	 163.442527 	 -439.888340 
H 	 65.395052 	 162.744455 	 -438.577660 
H 	 62.798755 	 159.423410 	 552.710632 
H 	 63.431454 	 158.134810 	 552.236011 
H 	 66.765253 	 162.149166 	 551.128661 
H 	 65.875423 	 161.441547 	 552.255112 
H 	 55.656676 	 -828.036910 	 -441.601710 
H 	 69.285915 	 -827.582039 	 -441.114479 
H 	 62.263322 	 160.309664 	 -440.224137 
H 	 62.661777 	 160.296067 	 -441.757476 
H 	 61.350876 	 -828.464773 	 -440.883583 
H 	 61.525245 	 -829.714881 	 -439.984467 
H 	 62.417701 	 163.136742 	 552.399398 
H 	 63.863397 	 163.140479 	 553.168814 
H 	 64.275778 	 -828.652921 	 553.155061 
H 	 63.637551 	 -829.490672 	 552.117868 
H 	 58.916270 	 163.094859 	 552.303364 
H 	 57.750636 	 164.031231 	 552.384005 
H 	 57.704298 	 -828.245357 	 -440.850340 
H 	 58.690326 	 -829.310461 	 -441.349984 
H 	 62.285926 	 166.543777 	 -443.310322 
H 	 62.808809 	 168.055382 	 -442.979322 
H 	 60.622742 	 -827.917609 	 -445.319416 
H 	 61.301895 	 158.462899 	 -444.992147 
H 	 -929.767490 	 159.774114 	 -437.162028 
H 	 56.732652 	 159.590233 	 548.731891 
H 	 60.981739 	 164.995135 	 -437.558107 
H 	 59.658329 	 164.635662 	 548.288746 
H 	 66.811007 	 168.274639 	 549.931766 
H 	 66.571602 	 168.612872 	 551.421877 
H 	 61.447696 	 165.668357 	 551.144302 
H 	 60.444507 	 165.918204 	 552.319916 
H 	 61.658622 	 168.428098 	 551.138045 
H 	 60.331369 	 168.066962 	 550.485963 
H 	 68.011094 	 163.673941 	 554.285109 
H 	 67.083382 	 164.751770 	 553.663864 
H 	 68.727520 	 166.028395 	 -441.957982 
H 	 68.436935 	 166.717634 	 -440.609338 
H 	 57.784990 	 159.679025 	 553.338172 
H 	 57.163433 	 158.421159 	 554.227180 
H 	 64.128688 	 168.190092 	 553.077885 
H 	 63.855073 	 167.431451 	 551.674104 
H 	 62.307128 	 162.230300 	 -442.936209 
H 	 63.551584 	 161.564748 	 -443.589033 
H 	 56.283230 	 163.509386 	 -438.532986 
H 	 -929.835763 	 164.158597 	 -437.558907 
H 	 60.793616 	 162.502729 	 551.323506 
H 	 60.748968 	 161.656220 	 552.569438 
H 	 61.431678 	 170.103708 	 -437.082819 
H 	 62.018812 	 170.132515 	 549.389372 
H 	 57.957505 	 165.312786 	 549.483671 
H 	 59.315088 	 165.743820 	 550.004073 
H 	 55.853388 	 162.848335 	 554.490545 
H 	 -930.059647 	 161.697194 	 553.750912 
H 	 66.230312 	 157.770104 	 550.314273 
H 	 66.077405 	 -828.924061 	 550.367442 
H 	 69.120963 	 161.532499 	 -442.946939 
H 	 68.908682 	 161.731664 	 -444.499693 
H 	 -930.345149 	 158.562647 	 -444.311708 
H 	 -930.447611 	 -827.976425 	 -443.748462 
H 	 55.937757 	 162.201177 	 -441.193024 
H 	 -930.024688 	 161.414410 	 -440.204991 
H 	 65.073920 	 167.159945 	 -444.561717 
H 	 63.768466 	 166.521218 	 -445.165505 
H 	 67.846937 	 159.522059 	 554.280590 
H 	 68.967321 	 159.318602 	 553.280533 
H 	 68.285570 	 166.507105 	 549.808430 
H 	 69.006503 	 166.783479 	 551.234017 
H 	 61.664317 	 167.886502 	 -438.168653 
H 	 60.291531 	 168.626605 	 -437.965747 
H 	 57.604866 	 160.364662 	 -443.231302 
H 	 57.285571 	 160.341961 	 -444.725652 
H 	 69.246569 	 167.480439 	 553.624957 
H 	 -929.958922 	 168.448608 	 552.759426 
H 	 66.419433 	 157.608145 	 553.081111 
H 	 65.699657 	 158.067852 	 554.510368 
H 	 -930.531382 	 159.025233 	 550.940546 
H 	 68.363876 	 159.938654 	 550.315309 
H 	 66.038682 	 162.712086 	 554.175846 
H 	 65.429639 	 161.330047 	 554.475108 
H 	 61.100018 	 161.396745 	 -438.394783 
H 	 61.856660 	 162.579701 	 -439.096033 
H 	 62.786173 	 159.680037 	 549.169009 
H 	 63.233392 	 160.117434 	 550.583008 
H 	 62.248582 	 166.775151 	 549.121472 
H 	 63.330451 	 166.416183 	 -437.134337 
H 	 61.780862 	 -828.360058 	 552.119375 
H 	 61.572140 	 -828.248692 	 550.632620 
H 	 63.411766 	 165.095119 	 551.536084 
H 	 64.008178 	 165.457790 	 550.184035 
H 	 60.774764 	 160.811056 	 554.460076 
H 	 61.870054 	 160.769347 	 -444.487172 
H 	 65.843356 	 164.299258 	 -443.773477 
H 	 62.149055 	 164.149364 	 -441.068411 
H 	 58.923808 	 -828.552410 	 550.789225 
H 	 58.172566 	 170.167958 	 551.148416 
H 	 -930.087559 	 -827.933720 	 552.668003 
H 	 68.858230 	 -828.540430 	 551.822075 
H 	 68.114143 	 163.453212 	 548.796147 
H 	 67.304844 	 163.774119 	 -437.501654 
H 	 63.818093 	 170.136709 	 -442.445024 
H 	 63.658853 	 -829.561880 	 -443.970751 
H 	 63.034751 	 164.826766 	 -439.929319 
O 	 57.299859 	 170.027826 	 -443.952963 
O 	 69.079633 	 166.326431 	 -439.143700 
O 	 58.913803 	 169.216727 	 -437.019252 
O 	 -929.742214 	 170.186091 	 554.163738 
O 	 58.262591 	 168.281252 	 550.970195 
O 	 56.263097 	 167.684429 	 549.008313 
O 	 60.628436 	 166.146702 	 554.449062 
O 	 58.220365 	 161.489276 	 548.931031 
O 	 60.487318 	 167.402131 	 -440.815839 
O 	 59.564316 	 158.947830 	 549.951880 
O 	 67.805930 	 -829.039568 	 -444.507332 
O 	 60.919446 	 162.253753 	 549.633341 
O 	 66.490883 	 159.454535 	 549.715514 
O 	 56.324213 	 161.848885 	 551.112442 
O 	 64.338706 	 -829.777568 	 -440.269353 
O 	 56.251987 	 -829.633713 	 549.121061 
O 	 67.071340 	 167.356531 	 548.308175 
O 	 58.765705 	 164.479466 	 -439.967566 
O 	 61.590862 	 163.696398 	 -442.796865 
O 	 64.824362 	 162.788402 	 -441.516435 
O 	 62.228697 	 -827.703647 	 -442.440740 
O 	 66.087143 	 160.093925 	 -441.511582 
O 	 56.548182 	 167.134952 	 -444.309032 
O 	 58.912370 	 -828.707980 	 554.022098 
O 	 65.995600 	 165.946369 	 552.664440 
O 	 65.060253 	 -829.104631 	 548.561213 
O 	 62.297243 	 158.485365 	 -437.163809 
O 	 64.929188 	 157.698003 	 -443.124987 
O 	 57.294219 	 159.078920 	 -439.443233 
O 	 56.382275 	 164.170429 	 -441.574429 
O 	 68.100619 	 169.705632 	 -437.648848 
O 	 56.666057 	 164.653645 	 550.182714 
O 	 -929.626516 	 168.971544 	 -441.779975 
O 	 57.603901 	 161.965343 	 -438.894919 
O 	 57.679592 	 166.247938 	 553.156918 
O 	 68.617715 	 166.850512 	 -444.743067 
O 	 58.708131 	 165.595996 	 -443.095349 
O 	 65.196679 	 166.903195 	 -440.906565 
O 	 65.054774 	 163.907508 	 549.524581 
O 	 69.069212 	 161.259356 	 -438.107550 
O 	 63.898096 	 158.238620 	 -439.416454 
O 	 68.220038 	 163.474663 	 551.020961 
O 	 59.568938 	 159.849267 	 552.527776 
O 	 55.777095 	 169.929131 	 -438.938391 
O 	 64.628487 	 161.676173 	 -437.382318 
O 	 66.312599 	 168.396064 	 -443.441596 
O 	 59.032704 	 -828.053307 	 -438.564224 
O 	 60.023743 	 159.805822 	 -438.223324 
O 	 62.968448 	 164.973178 	 -444.447592 
O 	 59.726850 	 162.329730 	 -444.658024 
O 	 60.782126 	 168.772984 	 553.835772 
O 	 66.722084 	 159.150499 	 -438.708104 
O 	 68.932873 	 164.505012 	 -443.093085 
O 	 66.223313 	 160.055255 	 -444.379414 
O 	 64.784722 	 166.251625 	 -438.412841 
O 	 68.644373 	 -828.024407 	 549.131371 
O 	 57.889182 	 167.640564 	 -440.778223 
O 	 67.233829 	 -828.152608 	 -441.616250 
O 	 67.012253 	 169.408165 	 -440.212520 
O 	 65.846173 	 163.577358 	 -438.938424 
O 	 63.568193 	 159.105199 	 552.145554 
O 	 66.117315 	 161.484593 	 551.298616 
O 	 -929.783636 	 -827.726614 	 -440.750684 
O 	 62.455453 	 159.739004 	 -440.984420 
O 	 60.855891 	 -829.137789 	 -440.389026 
O 	 63.236789 	 163.699965 	 552.617466 
O 	 63.406209 	 -829.046448 	 552.937859 
O 	 58.026152 	 163.137724 	 552.703503 
O 	 58.046986 	 -828.653763 	 -441.688713 
O 	 62.445107 	 167.206333 	 -442.575522 
O 	 61.485042 	 -827.599586 	 -444.986791 
O 	 56.095025 	 159.170139 	 -437.031294 
O 	 60.294206 	 164.270711 	 -437.500077 
O 	 66.922184 	 169.036886 	 550.569304 
O 	 60.537224 	 166.011003 	 551.340965 
O 	 61.055536 	 168.718695 	 550.421636 
O 	 67.155817 	 164.059656 	 554.391532 
O 	 68.200326 	 166.781258 	 -441.613749 
O 	 57.007536 	 159.317347 	 553.806538 
O 	 64.055871 	 168.316230 	 552.095779 
O 	 62.683326 	 161.348541 	 -443.189294 
O 	 55.856107 	 164.377145 	 -438.317917 
O 	 60.753595 	 162.591059 	 552.318521 
O 	 61.804385 	 -829.224454 	 548.667958 
O 	 58.810225 	 165.747664 	 549.175158 
O 	 -930.076391 	 162.656212 	 553.995385 
O 	 66.502741 	 -828.134046 	 550.763954 
O 	 68.438407 	 161.686687 	 -443.629497 
O 	 -929.950954 	 157.960220 	 -443.610762 
O 	 -929.866747 	 161.532862 	 -441.141949 
O 	 64.437176 	 167.228305 	 -445.337073 
O 	 68.829557 	 159.689424 	 554.160471 
O 	 69.010773 	 166.228781 	 550.396765 
O 	 61.141295 	 168.734086 	 -438.335585 
O 	 57.476137 	 160.991868 	 -443.950619 
O 	 -930.373613 	 167.561505 	 552.700276 
O 	 66.040586 	 -827.761332 	 553.935987 
O 	 69.283496 	 159.922235 	 550.677981 
O 	 65.345293 	 162.062699 	 553.846422 
O 	 61.963550 	 161.695814 	 -438.813469 
O 	 63.003316 	 160.485868 	 549.716344 
O 	 62.370163 	 166.534705 	 548.178102 
O 	 61.126553 	 -828.113714 	 551.469298 
O 	 63.435724 	 165.868110 	 550.870048 
O 	 61.462054 	 160.229087 	 -445.257437 
O 	 65.320165 	 164.828097 	 -443.123116 
O 	 58.027805 	 -828.855834 	 551.091082 
O 	 69.281498 	 -827.660822 	 551.984176 
O 	 68.206543 	 163.700834 	 -437.231892 
O 	 63.831692 	 169.727172 	 -443.301344 
O 	 62.686354 	 163.962555 	 -440.254787 
K 	 57.477803 	 166.750800 	 -438.402558 
