333
conformation = 10
H 	 2.568926 	 -6.288340 	 0.623008 
H 	 3.149414 	 -4.991345 	 1.221222 
H 	 -0.802792 	 5.970717 	 5.848259 
H 	 0.200122 	 4.837183 	 5.330241 
H 	 4.929071 	 -6.056518 	 -6.723711 
H 	 4.568551 	 -5.324251 	 6.895279 
H 	 0.184742 	 -5.311811 	 -0.969152 
H 	 1.747731 	 -5.164518 	 -0.865022 
H 	 3.699689 	 7.147134 	 -3.938369 
H 	 3.187790 	 -7.369556 	 -5.354594 
H 	 1.246966 	 6.765732 	 -6.041894 
H 	 1.744848 	 -6.796964 	 -6.589774 
H 	 7.113427 	 5.064813 	 -1.050589 
H 	 6.597351 	 6.473317 	 -1.312275 
H 	 3.232277 	 1.044294 	 -6.020781 
H 	 4.791358 	 1.341460 	 -6.507755 
H 	 6.876704 	 6.853183 	 2.858168 
H 	 6.435196 	 -7.314741 	 4.152567 
H 	 4.772714 	 -0.985292 	 -6.349776 
H 	 6.092027 	 -1.852240 	 -6.098069 
H 	 -1.901409 	 -5.308883 	 0.232884 
H 	 -2.219913 	 -4.128758 	 -0.691626 
H 	 7.240652 	 0.934167 	 -6.042223 
H 	 6.659867 	 2.281106 	 -6.838127 
H 	 -2.925463 	 -0.909600 	 -6.920946 
H 	 -3.090788 	 -0.409726 	 -5.401840 
H 	 1.398290 	 0.537457 	 -4.583984 
H 	 2.421613 	 1.596207 	 -3.703888 
H 	 -3.950819 	 -5.337120 	 4.249856 
H 	 -5.178393 	 -4.370188 	 4.435351 
H 	 0.985474 	 -4.663833 	 -6.469939 
H 	 2.336869 	 -4.745203 	 -5.710432 
H 	 -1.925887 	 -7.241432 	 7.082681 
H 	 -2.912516 	 6.364937 	 7.023397 
H 	 5.155697 	 3.849389 	 5.008794 
H 	 3.849386 	 3.156807 	 4.479460 
H 	 -7.103356 	 3.709349 	 0.841036 
H 	 6.395890 	 2.929449 	 1.065177 
H 	 -5.233823 	 2.544878 	 3.185157 
H 	 -4.135521 	 2.938541 	 2.214950 
H 	 7.401011 	 -3.012652 	 1.040281 
H 	 -7.164350 	 -2.408863 	 2.490912 
H 	 -3.807337 	 0.244070 	 2.871155 
H 	 -3.668266 	 -1.307194 	 2.595729 
H 	 2.684049 	 6.138088 	 0.851550 
H 	 1.253790 	 6.572627 	 0.126240 
H 	 4.174080 	 -4.422533 	 -2.504031 
H 	 4.026040 	 -4.655035 	 -0.942838 
H 	 -3.466231 	 5.662851 	 -3.945476 
H 	 -3.970002 	 5.773653 	 -2.495423 
H 	 -3.997553 	 -5.494038 	 -6.922153 
H 	 -5.154350 	 -4.577350 	 7.552326 
H 	 -6.333738 	 -2.244330 	 6.385497 
H 	 -7.161696 	 -2.975651 	 7.351930 
H 	 -3.899920 	 -3.476375 	 1.869105 
H 	 -5.287178 	 -3.066522 	 1.402504 
H 	 2.412306 	 -1.829857 	 4.130669 
H 	 2.333799 	 -1.402408 	 5.635746 
H 	 2.555191 	 3.775287 	 1.903118 
H 	 2.250697 	 4.298038 	 3.373277 
H 	 -1.015483 	 -4.865665 	 7.166166 
H 	 -0.180161 	 -5.942557 	 6.396651 
H 	 2.187779 	 3.148646 	 -5.656603 
H 	 1.502307 	 4.507100 	 -5.549156 
H 	 0.762078 	 -6.322617 	 3.432398 
H 	 0.470257 	 -7.249554 	 2.338880 
H 	 3.196937 	 0.457872 	 5.024113 
H 	 3.612522 	 1.278173 	 6.341608 
H 	 4.069452 	 5.648357 	 -1.864656 
H 	 2.651567 	 5.973672 	 -1.974488 
H 	 -0.802795 	 5.300996 	 -0.174462 
H 	 -1.405709 	 6.761253 	 -0.075730 
H 	 4.746628 	 5.129197 	 2.099021 
H 	 5.084999 	 5.329885 	 0.627087 
H 	 -4.806174 	 6.355754 	 2.816398 
H 	 -3.359496 	 5.762637 	 2.912689 
H 	 -4.635279 	 3.043858 	 -5.359209 
H 	 -4.539152 	 2.698249 	 -6.778215 
H 	 -0.319920 	 1.615267 	 6.309738 
H 	 -1.132752 	 0.384028 	 6.240102 
H 	 -5.744194 	 -1.782555 	 4.181181 
H 	 -4.463029 	 -1.973264 	 5.219638 
H 	 -0.855651 	 3.866296 	 -4.515999 
H 	 -0.183470 	 2.448749 	 -4.322893 
H 	 5.102394 	 -0.659068 	 -4.138217 
H 	 5.663541 	 -1.649476 	 -3.022704 
H 	 1.890660 	 -5.089829 	 6.183374 
H 	 1.369505 	 -4.786960 	 4.737991 
H 	 -4.689292 	 0.563125 	 -7.219173 
H 	 -5.562522 	 0.999469 	 6.591425 
H 	 -2.624986 	 -7.296310 	 1.799351 
H 	 -3.777703 	 -6.565215 	 0.939631 
H 	 3.852178 	 -3.019080 	 5.694414 
H 	 5.121427 	 -3.638957 	 4.924092 
H 	 6.376525 	 -1.317487 	 6.531091 
H 	 5.122982 	 -1.395317 	 5.628891 
H 	 -4.769527 	 4.308217 	 0.641325 
H 	 -6.100584 	 3.852805 	 -0.908374 
H 	 4.826086 	 1.128798 	 0.136531 
H 	 4.689679 	 2.289059 	 -0.747338 
H 	 7.152822 	 -6.041458 	 -1.974379 
H 	 5.692243 	 -6.161697 	 -1.505974 
H 	 -1.981760 	 -2.128414 	 5.176922 
H 	 -2.715781 	 -0.765193 	 4.907593 
H 	 -0.768699 	 3.015671 	 1.134437 
H 	 0.525661 	 3.738422 	 1.719658 
H 	 -2.290238 	 -0.009778 	 0.432225 
H 	 -3.421990 	 -1.024106 	 0.634924 
H 	 -4.200035 	 4.722002 	 5.870888 
H 	 -4.396739 	 5.953429 	 5.012782 
H 	 0.043171 	 -2.751936 	 -6.374751 
H 	 -1.251995 	 -3.549636 	 -5.821670 
H 	 3.005028 	 -7.238101 	 2.954733 
H 	 4.515373 	 7.117301 	 3.327160 
H 	 -2.049597 	 -4.594954 	 2.822700 
H 	 -1.758362 	 -3.502438 	 1.792150 
H 	 -2.550150 	 -6.966891 	 4.088395 
H 	 -1.892652 	 -5.825965 	 5.008897 
H 	 -3.325835 	 2.865136 	 4.397525 
H 	 -3.832181 	 2.250865 	 5.709940 
H 	 -6.260881 	 -0.995757 	 -2.911944 
H 	 -5.733469 	 -2.420801 	 -3.461754 
H 	 -2.418210 	 1.638161 	 -4.461341 
H 	 -3.354773 	 0.872039 	 -3.422659 
H 	 1.375900 	 -3.552856 	 2.758839 
H 	 0.014928 	 -3.148815 	 3.465132 
H 	 -6.990247 	 -0.175380 	 4.107176 
H 	 -6.519772 	 -0.212324 	 2.583136 
H 	 7.054225 	 -3.994732 	 3.426836 
H 	 7.185645 	 -5.182999 	 4.449234 
H 	 -6.734464 	 2.544031 	 -3.298476 
H 	 -5.321374 	 2.532695 	 -2.669771 
H 	 -4.978187 	 -4.101630 	 -2.508593 
H 	 -5.621676 	 -5.026176 	 -3.581534 
H 	 4.602326 	 2.519600 	 -3.331719 
H 	 3.363908 	 3.477891 	 -3.264450 
H 	 3.399625 	 -3.692093 	 3.422659 
H 	 4.312682 	 -4.821075 	 2.990914 
H 	 -7.009605 	 5.971685 	 1.085244 
H 	 -6.417408 	 -7.479345 	 1.327878 
H 	 6.337346 	 -3.490748 	 -1.017738 
H 	 7.008271 	 -2.065316 	 -0.683209 
H 	 1.040372 	 -0.724080 	 7.221608 
H 	 2.328262 	 -0.958236 	 -7.030683 
H 	 6.597123 	 4.424366 	 6.803409 
H 	 5.321538 	 4.056113 	 7.530305 
H 	 -2.384488 	 -7.193175 	 -5.687228 
H 	 -2.620382 	 -6.739528 	 -4.263046 
H 	 7.133702 	 5.197043 	 -4.427806 
H 	 6.062908 	 5.435818 	 -3.378823 
H 	 7.252208 	 -7.135260 	 -4.545128 
H 	 6.019567 	 -7.458012 	 -5.171085 
H 	 -1.167908 	 3.048011 	 -1.423589 
H 	 -2.160198 	 4.147527 	 -1.994033 
H 	 -0.702222 	 5.381273 	 2.343621 
H 	 -0.818412 	 6.177714 	 3.680097 
H 	 3.410525 	 -1.026306 	 -2.455013 
H 	 2.837004 	 -2.054476 	 -1.400284 
H 	 -5.191006 	 -7.296870 	 -2.635560 
H 	 -5.253202 	 6.863106 	 -3.960466 
H 	 -6.917780 	 1.728218 	 1.409841 
H 	 -5.648064 	 0.990559 	 0.851681 
H 	 2.000891 	 2.989123 	 5.685078 
H 	 0.997313 	 3.623759 	 6.777229 
H 	 6.350942 	 1.865094 	 -4.382890 
H 	 6.326492 	 1.078223 	 -3.084708 
H 	 7.184791 	 -5.478728 	 7.329553 
H 	 -7.230914 	 -5.206007 	 -6.191758 
H 	 3.688898 	 4.624263 	 -6.337186 
H 	 5.007870 	 5.044670 	 -5.634432 
H 	 1.561342 	 2.288557 	 -1.275131 
H 	 0.754802 	 1.161085 	 -1.861735 
H 	 -3.009643 	 -2.707925 	 -5.325824 
H 	 -3.161291 	 -4.365930 	 -5.293497 
H 	 -0.033407 	 1.067776 	 1.370435 
H 	 -0.163702 	 1.224262 	 -0.058894 
H 	 0.337570 	 -2.014769 	 0.055502 
H 	 0.395360 	 -3.442722 	 0.673992 
H 	 1.540147 	 1.675383 	 3.160434 
H 	 0.682223 	 0.980721 	 4.161956 
H 	 -4.093791 	 6.660928 	 -0.350925 
H 	 -5.480909 	 6.010138 	 -0.626607 
H 	 -1.369888 	 -1.062028 	 -1.350629 
H 	 -0.211191 	 -1.122555 	 -2.396876 
H 	 -0.954427 	 5.940016 	 -5.832476 
H 	 -0.177319 	 6.254910 	 -4.451460 
H 	 7.317589 	 7.326470 	 6.108588 
H 	 5.857600 	 -6.844550 	 6.329297 
H 	 3.257181 	 -0.299378 	 1.043776 
H 	 2.851295 	 -0.100008 	 -0.378284 
H 	 0.050484 	 6.968098 	 -2.067057 
H 	 0.649711 	 -6.945623 	 -2.921532 
H 	 -2.782205 	 -2.898286 	 -2.570704 
H 	 -3.573176 	 -2.487642 	 -1.263784 
H 	 0.264161 	 -1.542451 	 -4.655603 
H 	 -0.857586 	 -0.653464 	 -5.340710 
H 	 -3.198595 	 2.132020 	 -1.550990 
H 	 -3.823746 	 0.704793 	 -1.187634 
H 	 6.782272 	 0.786830 	 5.896767 
H 	 -7.366016 	 2.092105 	 5.184016 
H 	 -6.441934 	 -0.849498 	 -6.526193 
H 	 -5.928754 	 -0.476440 	 -5.059401 
H 	 -6.890388 	 6.109965 	 -6.494419 
H 	 -5.924596 	 5.894539 	 7.269521 
H 	 -7.385012 	 -3.891136 	 -3.492763 
H 	 7.259163 	 -3.762384 	 -5.040362 
H 	 -5.777098 	 4.586145 	 -4.112617 
H 	 -5.332910 	 4.874687 	 -5.562773 
H 	 6.467096 	 0.292667 	 -1.315519 
H 	 -7.284051 	 0.195662 	 -0.270795 
H 	 -3.236585 	 3.933872 	 0.513945 
H 	 -7.141922 	 3.595625 	 3.301932 
H 	 4.571213 	 -3.988452 	 -4.853292 
H 	 3.800935 	 -5.324459 	 -4.557895 
H 	 0.681289 	 -3.451029 	 -2.978964 
H 	 -0.481188 	 -3.937744 	 -3.934885 
H 	 -1.080562 	 2.906371 	 -6.852392 
H 	 -2.002093 	 3.198688 	 6.715273 
H 	 -5.365976 	 -5.122933 	 1.844374 
H 	 -5.534309 	 -4.996443 	 0.381770 
H 	 -6.197692 	 4.208018 	 4.477382 
O 	 2.956939 	 -5.414801 	 0.370021 
O 	 -0.154198 	 5.774494 	 5.180058 
O 	 4.612348 	 -6.249131 	 7.249970 
O 	 1.001717 	 -5.302155 	 -1.527227 
O 	 3.917711 	 -7.160966 	 -4.701162 
O 	 1.927554 	 7.126039 	 -6.680791 
O 	 6.279879 	 5.538955 	 -1.220428 
O 	 3.902158 	 0.908289 	 -6.745656 
O 	 6.144991 	 6.829970 	 3.508491 
O 	 5.213040 	 -1.595830 	 -5.741528 
O 	 -1.447373 	 -4.539626 	 -0.202212 
O 	 6.590055 	 1.675656 	 -6.049310 
O 	 -2.726285 	 -1.113473 	 -5.965578 
O 	 1.990943 	 1.319225 	 -4.568982 
O 	 -4.915333 	 -5.225640 	 4.020030 
O 	 1.918925 	 -5.096040 	 -6.545787 
O 	 -2.160451 	 6.788479 	 -7.345078 
O 	 4.439260 	 3.935572 	 4.337652 
O 	 7.272403 	 3.116134 	 1.565220 
O 	 -4.368516 	 2.235743 	 2.819333 
O 	 -7.047586 	 -3.202922 	 1.923706 
O 	 -3.150768 	 -0.463171 	 2.833265 
O 	 2.229489 	 6.559732 	 0.020698 
O 	 4.586010 	 -4.180930 	 -1.636862 
O 	 -3.220619 	 5.373347 	 -3.053562 
O 	 -4.191799 	 -4.582372 	 -7.109962 
O 	 -6.942212 	 -2.056382 	 7.155543 
O 	 -4.310112 	 -2.916196 	 1.198669 
O 	 2.949007 	 -1.530126 	 4.890221 
O 	 2.017446 	 3.614593 	 2.703558 
O 	 -1.113419 	 -5.761151 	 6.690922 
O 	 2.346083 	 4.102053 	 -5.481773 
O 	 1.095659 	 -6.518671 	 2.541193 
O 	 3.264010 	 1.368529 	 5.412997 
O 	 3.363731 	 5.707180 	 -2.540543 
O 	 -0.615122 	 6.293093 	 -0.407598 
O 	 4.382040 	 5.046095 	 1.215098 
O 	 -4.001412 	 6.359537 	 3.399392 
O 	 -4.185534 	 3.346062 	 -6.148964 
O 	 -0.198517 	 0.656796 	 6.224315 
O 	 -5.300131 	 -2.343341 	 4.917228 
O 	 -1.008906 	 2.864807 	 -4.648390 
O 	 5.233284 	 -0.757802 	 -3.134028 
O 	 1.451100 	 -5.514819 	 5.402668 
O 	 -4.618961 	 1.128357 	 6.914193 
O 	 -2.919194 	 -7.098359 	 0.872108 
O 	 4.700088 	 -3.494504 	 5.769396 
O 	 5.713698 	 -0.753038 	 6.104657 
O 	 -6.289432 	 4.392722 	 -0.110785 
O 	 5.399330 	 1.756279 	 -0.314239 
O 	 6.425856 	 -6.677204 	 -1.856690 
O 	 -2.488366 	 -1.413350 	 5.598425 
O 	 -0.296752 	 3.916334 	 1.230540 
O 	 -2.985021 	 -0.507788 	 -0.042959 
O 	 -4.430996 	 5.664847 	 5.907062 
O 	 -0.578050 	 -3.518111 	 -6.545499 
O 	 3.545033 	 7.097809 	 3.573125 
O 	 -2.046599 	 -3.630520 	 2.705773 
O 	 -2.215066 	 -6.042478 	 4.097375 
O 	 -3.367035 	 3.018157 	 5.394297 
O 	 -5.669435 	 -1.455255 	 -3.522889 
O 	 -3.122446 	 0.907415 	 -4.385233 
O 	 0.975320 	 -3.192940 	 3.587862 
O 	 -6.789559 	 -0.822606 	 3.347254 
O 	 6.537001 	 -4.631869 	 3.982106 
O 	 -5.998056 	 3.113418 	 -3.051141 
O 	 -5.845320 	 -4.519270 	 -2.744585 
O 	 3.677567 	 2.603656 	 -2.974926 
O 	 3.716253 	 -4.128276 	 2.643183 
O 	 -6.772079 	 6.628610 	 1.739351 
O 	 7.165297 	 -3.068995 	 -0.675963 
O 	 1.756374 	 -1.405523 	 7.276558 
O 	 5.971300 	 3.692715 	 6.841611 
O 	 -2.338809 	 -6.423383 	 -5.107034 
O 	 6.201910 	 5.460140 	 -4.345489 
O 	 6.703923 	 -6.747785 	 -5.255189 
O 	 -2.087411 	 3.471983 	 -1.314681 
O 	 -1.018254 	 6.229899 	 2.750791 
O 	 2.638656 	 -1.252333 	 -1.847029 
O 	 -5.192751 	 -7.142341 	 -3.589857 
O 	 -6.563137 	 0.790468 	 1.109825 
O 	 1.509067 	 3.782566 	 5.965779 
O 	 6.405225 	 2.022680 	 -3.384169 
O 	 7.446975 	 -4.710149 	 -7.004464 
O 	 4.485357 	 5.199743 	 -6.497315 
O 	 0.704477 	 2.108879 	 -1.668029 
O 	 -2.716888 	 -3.589169 	 -4.902863 
O 	 -0.768139 	 1.117671 	 0.700798 
O 	 0.784993 	 -2.561483 	 0.703224 
O 	 0.874536 	 0.949334 	 3.165773 
O 	 -4.790236 	 6.646798 	 -1.014635 
O 	 -0.448541 	 -0.823771 	 -1.485360 
O 	 -0.201985 	 5.678173 	 -5.263777 
O 	 6.848570 	 -6.763283 	 5.947581 
O 	 3.161946 	 0.429728 	 0.384730 
O 	 0.375494 	 6.999416 	 -2.979721 
O 	 -3.215634 	 -3.226611 	 -1.757056 
O 	 0.057209 	 -0.617207 	 -4.998242 
O 	 -3.870020 	 1.473500 	 -1.828046 
O 	 -7.306756 	 1.118253 	 5.510074 
O 	 -6.212361 	 -0.085747 	 -5.944594 
O 	 -6.877177 	 5.978317 	 7.439791 
O 	 6.805254 	 -3.608051 	 -4.168676 
O 	 -5.817961 	 5.281609 	 -4.801058 
O 	 7.137178 	 -0.347008 	 -0.916429 
O 	 -3.907328 	 4.266370 	 1.151702 
O 	 3.699766 	 -4.323315 	 -4.605216 
O 	 0.047402 	 -3.159311 	 -3.682456 
O 	 -1.041566 	 3.126657 	 7.071879 
O 	 -5.385237 	 -5.714169 	 1.004343 
O 	 -6.577641 	 3.402555 	 4.094799 
K 	 3.133684 	 6.170479 	 5.910393 
