333
conformation = 69
H 	 2.848637 	 -6.431357 	 0.358637 
H 	 3.186288 	 -5.134730 	 1.226117 
H 	 -0.670022 	 5.710115 	 6.101981 
H 	 0.357809 	 4.861329 	 5.265058 
H 	 4.410666 	 -6.402643 	 -7.150826 
H 	 4.542989 	 -5.288741 	 6.675079 
H 	 -0.117797 	 -5.454438 	 -1.364547 
H 	 1.364360 	 -5.541823 	 -0.949511 
H 	 3.667477 	 7.117664 	 -3.879049 
H 	 3.062210 	 -7.324036 	 -5.285455 
H 	 1.190945 	 6.719116 	 -6.133359 
H 	 1.644207 	 -6.849029 	 -6.579009 
H 	 7.103625 	 4.998039 	 -0.894516 
H 	 6.131897 	 6.228800 	 -1.213849 
H 	 3.307270 	 1.236786 	 -6.142454 
H 	 4.837906 	 1.066733 	 -6.621310 
H 	 6.777105 	 6.508080 	 2.864177 
H 	 6.620067 	 6.824407 	 4.344759 
H 	 4.543969 	 -0.838970 	 -6.249190 
H 	 5.889534 	 -1.606496 	 -6.443609 
H 	 -1.942933 	 -5.806681 	 0.020425 
H 	 -2.219484 	 -4.548527 	 -0.826007 
H 	 7.345396 	 0.967356 	 -6.316208 
H 	 6.512763 	 2.229232 	 -6.897129 
H 	 -2.958939 	 -1.147300 	 -6.960711 
H 	 -3.074213 	 -0.477766 	 -5.494019 
H 	 1.603370 	 0.611892 	 -4.854960 
H 	 2.447529 	 1.681824 	 -3.867631 
H 	 -4.214089 	 -5.411144 	 4.019935 
H 	 -5.162752 	 -4.190109 	 3.887730 
H 	 0.956401 	 -4.687541 	 -6.187016 
H 	 2.512791 	 -4.833329 	 -5.830223 
H 	 -1.595789 	 -7.547713 	 7.245000 
H 	 -2.974496 	 6.407621 	 7.111121 
H 	 5.341987 	 4.275354 	 4.626512 
H 	 4.336885 	 3.066515 	 4.566905 
H 	 -7.115653 	 3.480689 	 1.081117 
H 	 6.363624 	 2.939695 	 1.338093 
H 	 -4.918360 	 2.596267 	 3.246870 
H 	 -3.716052 	 2.829460 	 2.267054 
H 	 7.343855 	 -3.401991 	 1.208940 
H 	 7.243511 	 -2.723543 	 2.660662 
H 	 -3.457132 	 0.372758 	 3.122597 
H 	 -3.883061 	 -0.980947 	 2.648236 
H 	 2.821056 	 5.811328 	 0.653856 
H 	 1.378934 	 6.509565 	 0.152900 
H 	 4.139413 	 -3.879009 	 -2.116805 
H 	 3.925819 	 -4.745942 	 -0.822330 
H 	 -3.823950 	 4.744152 	 -3.760793 
H 	 -3.492386 	 5.614432 	 -2.557782 
H 	 -4.284966 	 -5.555535 	 -6.517587 
H 	 -5.324762 	 -4.604398 	 -7.071107 
H 	 -6.284120 	 -2.434999 	 6.423113 
H 	 -7.129491 	 -2.954775 	 7.485890 
H 	 -3.796789 	 -3.604070 	 1.641786 
H 	 -5.228139 	 -3.225615 	 1.806402 
H 	 2.059479 	 -2.255144 	 4.382378 
H 	 2.523236 	 -1.754865 	 5.814689 
H 	 2.740596 	 3.504284 	 1.762015 
H 	 2.255988 	 4.057321 	 3.167660 
H 	 -0.980546 	 -5.063370 	 7.216429 
H 	 -0.027531 	 -5.802925 	 6.237386 
H 	 1.952745 	 3.197106 	 -5.142470 
H 	 1.572335 	 4.687688 	 -5.319965 
H 	 0.889198 	 -6.578836 	 3.489703 
H 	 0.063035 	 -7.463768 	 2.576701 
H 	 2.807865 	 0.394395 	 4.866089 
H 	 3.465776 	 1.010451 	 6.213585 
H 	 4.465393 	 5.541797 	 -2.129539 
H 	 3.107135 	 6.148221 	 -1.877194 
H 	 -0.676050 	 5.323301 	 0.123907 
H 	 -1.228961 	 6.835244 	 0.140516 
H 	 4.946545 	 5.006135 	 1.953695 
H 	 5.004999 	 4.813071 	 0.449093 
H 	 -4.725903 	 6.842095 	 2.970327 
H 	 -3.821746 	 5.686131 	 2.513143 
H 	 -3.760878 	 2.547876 	 -5.755256 
H 	 -4.580516 	 3.001898 	 -6.977293 
H 	 -0.844654 	 0.844400 	 6.833086 
H 	 -0.956010 	 -0.467039 	 6.138400 
H 	 -5.535913 	 -2.094003 	 4.383076 
H 	 -4.197504 	 -2.065945 	 5.295813 
H 	 -0.811894 	 3.488927 	 -4.832273 
H 	 0.051052 	 2.154022 	 -4.666574 
H 	 5.064327 	 -1.607034 	 -3.991820 
H 	 5.954697 	 -1.544053 	 -2.613186 
H 	 1.871831 	 -5.292887 	 6.487385 
H 	 1.792150 	 -4.604408 	 5.126391 
H 	 -5.231231 	 0.668847 	 7.510973 
H 	 -5.739055 	 1.044097 	 6.129145 
H 	 -2.763316 	 7.084283 	 1.508991 
H 	 -3.648257 	 -6.634485 	 1.058449 
H 	 4.178018 	 -3.262410 	 5.209140 
H 	 5.566185 	 -3.874051 	 5.698031 
H 	 6.285071 	 -1.518265 	 6.447304 
H 	 5.038830 	 -1.019203 	 5.631544 
H 	 -4.733322 	 4.203580 	 0.491076 
H 	 -6.208925 	 3.598718 	 -0.737298 
H 	 4.613442 	 1.755363 	 0.182939 
H 	 5.436368 	 2.333907 	 -0.989754 
H 	 7.220285 	 -6.246360 	 -1.803148 
H 	 5.729580 	 -5.849918 	 -1.846622 
H 	 -1.796277 	 -2.185330 	 5.675001 
H 	 -2.507341 	 -1.382630 	 4.497149 
H 	 -0.635199 	 2.728941 	 1.065636 
H 	 0.383056 	 3.922549 	 1.276694 
H 	 -2.251313 	 -0.195038 	 0.618538 
H 	 -3.110392 	 -1.416704 	 0.412830 
H 	 -3.822029 	 4.632976 	 5.955762 
H 	 -4.378947 	 5.736277 	 5.168326 
H 	 -0.261949 	 -2.824503 	 -6.985231 
H 	 -1.056499 	 -3.583891 	 -5.895493 
H 	 2.791166 	 -7.431700 	 2.857014 
H 	 4.289855 	 -7.544593 	 3.314912 
H 	 -2.205198 	 -4.534858 	 3.263540 
H 	 -1.791164 	 -4.051709 	 1.911918 
H 	 -1.741725 	 -6.815256 	 3.638448 
H 	 -1.836713 	 -5.973325 	 4.949282 
H 	 -3.287343 	 2.694967 	 4.472001 
H 	 -3.689252 	 2.323372 	 5.914936 
H 	 -6.025253 	 -0.764511 	 -2.706157 
H 	 -6.223891 	 -2.127562 	 -3.583538 
H 	 -2.233755 	 1.265351 	 -4.426532 
H 	 -3.452608 	 0.789345 	 -3.507960 
H 	 0.915109 	 -2.997098 	 2.813345 
H 	 -0.110689 	 -3.332243 	 3.956961 
H 	 -6.943768 	 -0.049130 	 4.155880 
H 	 -6.723677 	 -0.136530 	 2.615720 
H 	 7.040408 	 -4.385753 	 3.590920 
H 	 7.070900 	 -5.693914 	 4.418381 
H 	 -6.816838 	 2.548670 	 -3.030624 
H 	 -5.373993 	 2.296725 	 -2.445803 
H 	 -5.255593 	 -4.229328 	 -2.191965 
H 	 -5.335740 	 -5.533222 	 -3.087354 
H 	 4.420361 	 2.600659 	 -3.302826 
H 	 3.420828 	 3.762063 	 -3.116897 
H 	 3.277852 	 -3.787083 	 3.435580 
H 	 4.665388 	 -4.488551 	 3.172147 
H 	 -6.273351 	 5.797975 	 1.061155 
H 	 -6.366060 	 -7.500531 	 1.246451 
H 	 6.372014 	 -3.504866 	 -1.018275 
H 	 7.203726 	 -2.224290 	 -0.651690 
H 	 1.097706 	 -0.689758 	 6.951986 
H 	 2.059017 	 -1.229418 	 -6.839231 
H 	 6.997434 	 4.135424 	 6.991296 
H 	 5.544829 	 4.028058 	 7.488110 
H 	 -2.569216 	 -7.068098 	 -5.771224 
H 	 -3.189676 	 -6.825182 	 -4.426152 
H 	 7.072206 	 5.306936 	 -4.685167 
H 	 6.422794 	 5.360827 	 -3.348848 
H 	 7.045912 	 -6.490685 	 -4.435378 
H 	 5.749953 	 -6.953722 	 -4.923661 
H 	 -1.128928 	 3.031581 	 -1.617805 
H 	 -2.225227 	 3.973994 	 -2.191403 
H 	 -0.713013 	 5.402228 	 2.442518 
H 	 -0.954228 	 6.088616 	 3.754031 
H 	 3.375729 	 -1.333219 	 -2.057433 
H 	 2.085173 	 -2.124049 	 -1.341271 
H 	 -5.129588 	 7.090215 	 -2.970717 
H 	 -5.635571 	 7.224548 	 -4.352383 
H 	 -6.850767 	 1.591047 	 1.298569 
H 	 -5.430459 	 1.011761 	 1.268739 
H 	 2.185817 	 2.687010 	 5.558759 
H 	 0.767674 	 3.129069 	 6.118819 
H 	 6.390674 	 2.001471 	 -4.537568 
H 	 6.301618 	 0.903222 	 -3.500018 
H 	 -7.391772 	 -5.129766 	 6.953317 
H 	 6.929817 	 -5.678255 	 -6.664746 
H 	 4.080786 	 4.584624 	 -5.930291 
H 	 5.115272 	 5.652545 	 -5.803681 
H 	 1.611359 	 2.257633 	 -2.110697 
H 	 0.497035 	 1.260514 	 -1.896711 
H 	 -2.760974 	 -2.595770 	 -5.198954 
H 	 -3.046544 	 -4.266456 	 -5.064134 
H 	 -0.042774 	 0.818751 	 1.749395 
H 	 0.122790 	 0.888929 	 0.263158 
H 	 0.329612 	 -1.510022 	 0.312928 
H 	 0.451295 	 -3.008407 	 -0.078487 
H 	 1.009173 	 1.729589 	 3.201702 
H 	 0.307296 	 0.695704 	 4.073091 
H 	 -4.243325 	 6.636026 	 -0.285322 
H 	 -5.367787 	 5.664927 	 -0.896137 
H 	 -1.506820 	 -0.508151 	 -1.084769 
H 	 -0.560497 	 -1.415198 	 -1.851905 
H 	 -0.886028 	 5.760734 	 -5.639624 
H 	 -0.006622 	 6.267315 	 -4.404070 
H 	 -7.334443 	 7.203871 	 6.330010 
H 	 6.227442 	 -6.963771 	 6.031892 
H 	 2.872732 	 -0.214496 	 1.247955 
H 	 2.994104 	 -0.340188 	 -0.219744 
H 	 -0.069827 	 6.506859 	 -2.256143 
H 	 0.618811 	 -7.119521 	 -2.446343 
H 	 -3.492963 	 -3.476456 	 -2.895005 
H 	 -3.373355 	 -2.342937 	 -1.862837 
H 	 0.273262 	 -1.545755 	 -4.533729 
H 	 -0.718180 	 -0.628151 	 -5.381107 
H 	 -3.151051 	 1.846957 	 -1.610337 
H 	 -3.807620 	 0.476735 	 -1.158777 
H 	 6.789331 	 0.562062 	 5.975329 
H 	 7.232592 	 1.876002 	 5.222248 
H 	 -6.308294 	 -1.030079 	 -6.348553 
H 	 -5.794961 	 -0.390867 	 -4.947283 
H 	 -6.913215 	 6.489953 	 -6.516300 
H 	 -6.029248 	 5.792605 	 7.326591 
H 	 -7.256442 	 -4.193997 	 -3.454691 
H 	 7.069883 	 -3.766233 	 -4.800986 
H 	 -5.916492 	 4.386899 	 -3.949898 
H 	 -5.349834 	 4.492389 	 -5.325527 
H 	 6.561572 	 0.003016 	 -0.824682 
H 	 -6.941158 	 -0.220276 	 -0.410297 
H 	 -3.243943 	 3.811596 	 0.118592 
H 	 -7.205145 	 3.272107 	 3.398716 
H 	 4.686795 	 -4.037908 	 -4.677456 
H 	 3.956308 	 -5.418753 	 -4.452445 
H 	 0.436610 	 -4.278232 	 -3.171538 
H 	 -0.914573 	 -3.606482 	 -3.730098 
H 	 -1.745495 	 3.294747 	 -7.200006 
H 	 -1.666191 	 3.096195 	 6.192547 
H 	 -5.234681 	 -5.478241 	 1.913467 
H 	 -5.082165 	 -4.834885 	 0.570090 
H 	 -6.943811 	 4.364861 	 4.486090 
O 	 2.934835 	 -5.448311 	 0.334655 
O 	 -0.049920 	 5.781642 	 5.355824 
O 	 4.742162 	 -6.240077 	 6.839241 
O 	 0.782960 	 -5.473083 	 -1.763019 
O 	 3.799039 	 -7.134627 	 -4.629437 
O 	 1.898474 	 7.097691 	 -6.694435 
O 	 6.118241 	 5.236667 	 -1.134341 
O 	 3.902552 	 0.693672 	 -6.711584 
O 	 6.070600 	 6.699446 	 3.493005 
O 	 5.123415 	 -1.539733 	 -5.885652 
O 	 -1.549841 	 -4.896864 	 -0.167939 
O 	 6.571442 	 1.560794 	 -6.162257 
O 	 -2.573351 	 -1.163029 	 -6.066974 
O 	 2.018812 	 1.516383 	 -4.743861 
O 	 -5.120052 	 -5.132308 	 3.693003 
O 	 1.826338 	 -5.022576 	 -6.534283 
O 	 -2.130153 	 6.595747 	 -7.256016 
O 	 4.539351 	 3.949279 	 4.227035 
O 	 7.235012 	 2.990567 	 1.784088 
O 	 -4.084143 	 2.160591 	 2.918902 
O 	 -7.250301 	 -3.447858 	 2.150273 
O 	 -3.175528 	 -0.553725 	 3.117096 
O 	 2.346867 	 6.492182 	 0.080692 
O 	 4.633494 	 -4.394537 	 -1.476222 
O 	 -3.053285 	 5.229280 	 -3.356214 
O 	 -4.352827 	 -4.763155 	 -7.143011 
O 	 -6.909417 	 -2.103001 	 7.100576 
O 	 -4.467385 	 -3.060448 	 1.196319 
O 	 2.835828 	 -1.815520 	 4.840013 
O 	 1.966176 	 3.604472 	 2.374246 
O 	 -0.943138 	 -5.861575 	 6.631590 
O 	 2.288608 	 4.048138 	 -5.436180 
O 	 0.760990 	 -6.767182 	 2.527664 
O 	 3.118257 	 1.236838 	 5.277323 
O 	 3.601677 	 5.763051 	 -2.599163 
O 	 -0.593531 	 6.248554 	 -0.373803 
O 	 4.385413 	 4.989154 	 1.175765 
O 	 -3.842057 	 6.457161 	 3.126742 
O 	 -4.324501 	 3.305489 	 -6.115735 
O 	 -0.361173 	 0.289813 	 6.193898 
O 	 -5.019877 	 -2.579223 	 5.082238 
O 	 -0.908215 	 2.530524 	 -4.629425 
O 	 5.191359 	 -1.171117 	 -3.107035 
O 	 1.529468 	 -5.423884 	 5.572333 
O 	 -4.934747 	 1.152398 	 6.740410 
O 	 -2.905426 	 -7.203005 	 0.696991 
O 	 4.690973 	 -3.555128 	 5.985715 
O 	 5.782176 	 -0.752954 	 6.155984 
O 	 -6.388746 	 4.312179 	 -0.089621 
O 	 5.484378 	 1.698009 	 -0.237718 
O 	 6.338294 	 -6.609774 	 -1.999589 
O 	 -2.410479 	 -1.497805 	 5.499137 
O 	 -0.545291 	 3.765102 	 1.186718 
O 	 -2.868377 	 -0.598137 	 -0.018856 
O 	 -4.310330 	 5.463098 	 6.055519 
O 	 -0.439157 	 -3.731305 	 -6.635845 
O 	 3.376731 	 7.222223 	 3.660608 
O 	 -2.238423 	 -3.717374 	 2.723136 
O 	 -2.267735 	 -6.094438 	 4.077651 
O 	 -3.209198 	 3.011479 	 5.438817 
O 	 -5.608576 	 -1.392434 	 -3.355496 
O 	 -3.167258 	 0.911098 	 -4.431154 
O 	 0.843657 	 -3.396670 	 3.707729 
O 	 -6.806897 	 -0.739084 	 3.413808 
O 	 6.575947 	 -4.899126 	 4.299066 
O 	 -5.924986 	 2.910142 	 -2.987319 
O 	 -5.840808 	 -4.714794 	 -2.807416 
O 	 3.579920 	 2.853668 	 -2.823160 
O 	 3.809737 	 -4.272954 	 2.778282 
O 	 -6.514600 	 6.516620 	 1.651239 
O 	 7.253644 	 -3.236737 	 -0.739530 
O 	 1.595155 	 -1.494378 	 7.224211 
O 	 6.209980 	 3.535947 	 6.921121 
O 	 -2.571118 	 -6.387109 	 -5.081352 
O 	 6.175842 	 5.428378 	 -4.275366 
O 	 6.676984 	 -6.922702 	 -5.242478 
O 	 -2.081890 	 3.274054 	 -1.524893 
O 	 -1.065834 	 6.230376 	 2.779094 
O 	 2.426611 	 -1.327184 	 -1.771995 
O 	 -5.326918 	 -7.154409 	 -3.620107 
O 	 -6.356371 	 0.751220 	 1.109346 
O 	 1.578914 	 3.445821 	 5.623459 
O 	 6.194155 	 1.865533 	 -3.527984 
O 	 -7.426880 	 -4.911855 	 -6.978437 
O 	 4.582123 	 5.163963 	 -6.538642 
O 	 0.846078 	 2.116601 	 -1.585121 
O 	 -2.596849 	 -3.466459 	 -4.672340 
O 	 -0.599087 	 1.040318 	 0.926682 
O 	 0.581240 	 -2.375424 	 0.632335 
O 	 0.711521 	 0.779383 	 3.156123 
O 	 -4.749252 	 6.417104 	 -1.115860 
O 	 -0.570616 	 -0.568034 	 -1.406967 
O 	 -0.057986 	 5.619165 	 -5.142131 
O 	 7.146824 	 -7.019953 	 5.784250 
O 	 3.148215 	 0.287107 	 0.487002 
O 	 0.236198 	 7.021689 	 -2.999699 
O 	 -3.445031 	 -3.292707 	 -1.956792 
O 	 0.138787 	 -0.635151 	 -4.889263 
O 	 -3.832635 	 1.181307 	 -1.844242 
O 	 -7.385131 	 0.962362 	 5.479748 
O 	 -6.029897 	 -0.201867 	 -5.912220 
O 	 -6.941938 	 5.925888 	 -7.320446 
O 	 6.810700 	 -3.758536 	 -3.861325 
O 	 -5.897804 	 5.008127 	 -4.685047 
O 	 7.312901 	 -0.570980 	 -1.045349 
O 	 -3.778906 	 4.251005 	 0.841088 
O 	 3.783174 	 -4.441987 	 -4.625511 
O 	 0.056521 	 -3.409911 	 -3.482271 
O 	 -1.089305 	 3.041075 	 7.062301 
O 	 -5.282022 	 -5.762627 	 0.915710 
O 	 -6.787623 	 3.399248 	 4.305639 
K 	 3.067864 	 6.021106 	 5.930018 
