333
conformation = 70
H 	 2.854093 	 -6.433238 	 0.374011 
H 	 3.195762 	 -5.144239 	 1.229902 
H 	 -0.675563 	 5.725824 	 6.113367 
H 	 0.355095 	 4.860973 	 5.264754 
H 	 4.406260 	 -6.393180 	 -7.164958 
H 	 4.535641 	 -5.281800 	 6.669261 
H 	 -0.120272 	 -5.459977 	 -1.377092 
H 	 1.356193 	 -5.529427 	 -0.956801 
H 	 3.669097 	 7.109628 	 -3.883350 
H 	 3.058879 	 -7.317804 	 -5.278705 
H 	 1.202800 	 6.722487 	 -6.134201 
H 	 1.639003 	 -6.844570 	 -6.581614 
H 	 7.097395 	 4.999740 	 -0.895127 
H 	 6.133402 	 6.227921 	 -1.207175 
H 	 3.297677 	 1.240024 	 -6.149024 
H 	 4.834654 	 1.071992 	 -6.634299 
H 	 6.768665 	 6.503495 	 2.851910 
H 	 6.613026 	 6.820909 	 4.340896 
H 	 4.526783 	 -0.844588 	 -6.241200 
H 	 5.883713 	 -1.602823 	 -6.454324 
H 	 -1.939178 	 -5.809814 	 0.021669 
H 	 -2.223536 	 -4.558375 	 -0.820374 
H 	 7.341493 	 0.961386 	 -6.308216 
H 	 6.507972 	 2.233706 	 -6.909590 
H 	 -2.960472 	 -1.146752 	 -6.952177 
H 	 -3.068679 	 -0.476970 	 -5.497647 
H 	 1.605655 	 0.609926 	 -4.872808 
H 	 2.443983 	 1.679249 	 -3.861735 
H 	 -4.223374 	 -5.407071 	 4.023476 
H 	 -5.161188 	 -4.189867 	 3.890448 
H 	 0.959923 	 -4.685412 	 -6.201124 
H 	 2.508261 	 -4.837140 	 -5.826079 
H 	 -1.603311 	 -7.544621 	 7.244233 
H 	 -2.972499 	 6.407457 	 7.099798 
H 	 5.343538 	 4.271181 	 4.621354 
H 	 4.336558 	 3.075347 	 4.576675 
H 	 -7.121099 	 3.476926 	 1.079921 
H 	 6.375938 	 2.933956 	 1.344524 
H 	 -4.916557 	 2.593767 	 3.247983 
H 	 -3.719649 	 2.823005 	 2.275458 
H 	 7.338214 	 -3.401127 	 1.204307 
H 	 7.241757 	 -2.708615 	 2.654306 
H 	 -3.453168 	 0.369583 	 3.133683 
H 	 -3.875670 	 -0.968946 	 2.652613 
H 	 2.816016 	 5.832669 	 0.648686 
H 	 1.377828 	 6.507701 	 0.156878 
H 	 4.144871 	 -3.872085 	 -2.113255 
H 	 3.925333 	 -4.750870 	 -0.824156 
H 	 -3.826408 	 4.745672 	 -3.746852 
H 	 -3.481943 	 5.609983 	 -2.567777 
H 	 -4.271204 	 -5.557085 	 -6.512171 
H 	 -5.324519 	 -4.604774 	 -7.056830 
H 	 -6.289945 	 -2.447159 	 6.418737 
H 	 -7.129032 	 -2.962002 	 7.489672 
H 	 -3.793302 	 -3.605391 	 1.635985 
H 	 -5.233630 	 -3.218036 	 1.808828 
H 	 2.059133 	 -2.266460 	 4.387704 
H 	 2.528305 	 -1.755675 	 5.805766 
H 	 2.735667 	 3.512591 	 1.756429 
H 	 2.260392 	 4.051599 	 3.166546 
H 	 -0.969923 	 -5.073249 	 7.203919 
H 	 -0.018985 	 -5.794416 	 6.233276 
H 	 1.947820 	 3.201952 	 -5.149266 
H 	 1.554756 	 4.696406 	 -5.325712 
H 	 0.887742 	 -6.563053 	 3.486448 
H 	 0.062285 	 -7.465767 	 2.577864 
H 	 2.814255 	 0.394971 	 4.860993 
H 	 3.471368 	 1.020204 	 6.219745 
H 	 4.464853 	 5.547759 	 -2.125001 
H 	 3.103295 	 6.146426 	 -1.867003 
H 	 -0.689267 	 5.317436 	 0.113718 
H 	 -1.224144 	 6.837831 	 0.144340 
H 	 4.944958 	 5.025037 	 1.966822 
H 	 5.008680 	 4.805419 	 0.450093 
H 	 -4.722029 	 6.842484 	 2.959822 
H 	 -3.830916 	 5.695479 	 2.508098 
H 	 -3.763121 	 2.535303 	 -5.756231 
H 	 -4.589231 	 2.991794 	 -6.979927 
H 	 -0.847905 	 0.849237 	 6.829990 
H 	 -0.957980 	 -0.469211 	 6.132931 
H 	 -5.536106 	 -2.100972 	 4.396222 
H 	 -4.190361 	 -2.059890 	 5.287669 
H 	 -0.811524 	 3.478562 	 -4.831481 
H 	 0.050512 	 2.157783 	 -4.676344 
H 	 5.070229 	 -1.612068 	 -4.002034 
H 	 5.959714 	 -1.538841 	 -2.628060 
H 	 1.866815 	 -5.294804 	 6.490514 
H 	 1.792936 	 -4.607869 	 5.123230 
H 	 -5.235997 	 0.668747 	 7.511250 
H 	 -5.741278 	 1.047221 	 6.137005 
H 	 -2.761666 	 7.087342 	 1.504837 
H 	 -3.648974 	 -6.622767 	 1.044673 
H 	 4.173132 	 -3.260438 	 5.211224 
H 	 5.579776 	 -3.877956 	 5.691841 
H 	 6.282505 	 -1.527342 	 6.443624 
H 	 5.043732 	 -1.026827 	 5.630937 
H 	 -4.739434 	 4.208712 	 0.490481 
H 	 -6.206051 	 3.591043 	 -0.722371 
H 	 4.603733 	 1.752592 	 0.191884 
H 	 5.439599 	 2.325616 	 -0.990841 
H 	 7.220843 	 -6.253166 	 -1.794976 
H 	 5.730541 	 -5.842447 	 -1.833612 
H 	 -1.797539 	 -2.201643 	 5.680613 
H 	 -2.525001 	 -1.379683 	 4.499139 
H 	 -0.633535 	 2.727124 	 1.065497 
H 	 0.382315 	 3.920321 	 1.259859 
H 	 -2.249889 	 -0.186403 	 0.632055 
H 	 -3.114893 	 -1.429736 	 0.411542 
H 	 -3.831557 	 4.627865 	 5.963261 
H 	 -4.385410 	 5.737788 	 5.159616 
H 	 -0.253583 	 -2.834198 	 -6.980111 
H 	 -1.061614 	 -3.573140 	 -5.882285 
H 	 2.790688 	 -7.443358 	 2.862266 
H 	 4.288301 	 -7.534096 	 3.320534 
H 	 -2.217998 	 -4.537843 	 3.265188 
H 	 -1.788604 	 -4.060402 	 1.910928 
H 	 -1.731454 	 -6.796437 	 3.627238 
H 	 -1.831356 	 -5.970242 	 4.958220 
H 	 -3.280723 	 2.700736 	 4.470237 
H 	 -3.693344 	 2.312652 	 5.908694 
H 	 -6.022930 	 -0.754056 	 -2.706798 
H 	 -6.219127 	 -2.128424 	 -3.586171 
H 	 -2.239584 	 1.258383 	 -4.418322 
H 	 -3.452582 	 0.797409 	 -3.502158 
H 	 0.918608 	 -3.004075 	 2.815459 
H 	 -0.117289 	 -3.342373 	 3.962065 
H 	 -6.933667 	 -0.038436 	 4.159143 
H 	 -6.710033 	 -0.136699 	 2.616939 
H 	 7.038335 	 -4.383492 	 3.600537 
H 	 7.072986 	 -5.701953 	 4.396536 
H 	 -6.813183 	 2.535960 	 -3.031371 
H 	 -5.373249 	 2.298292 	 -2.434216 
H 	 -5.262778 	 -4.226007 	 -2.186719 
H 	 -5.336259 	 -5.532018 	 -3.092954 
H 	 4.421475 	 2.592384 	 -3.301359 
H 	 3.409281 	 3.768485 	 -3.114280 
H 	 3.268491 	 -3.788200 	 3.441633 
H 	 4.665415 	 -4.483470 	 3.180678 
H 	 -6.275658 	 5.795417 	 1.054257 
H 	 -6.362026 	 -7.492320 	 1.247105 
H 	 6.375683 	 -3.514946 	 -1.016294 
H 	 7.213765 	 -2.225835 	 -0.653450 
H 	 1.104914 	 -0.689816 	 6.962004 
H 	 2.044999 	 -1.222569 	 -6.823582 
H 	 6.998080 	 4.147813 	 6.992932 
H 	 5.542296 	 4.035158 	 7.485878 
H 	 -2.565061 	 -7.065351 	 -5.785685 
H 	 -3.200218 	 -6.830335 	 -4.427930 
H 	 7.071456 	 5.305511 	 -4.695552 
H 	 6.430247 	 5.354811 	 -3.341684 
H 	 7.037475 	 -6.475280 	 -4.442797 
H 	 5.753299 	 -6.966632 	 -4.926122 
H 	 -1.142917 	 3.032089 	 -1.613436 
H 	 -2.220275 	 3.980459 	 -2.194775 
H 	 -0.706459 	 5.406409 	 2.450103 
H 	 -0.954678 	 6.101824 	 3.741389 
H 	 3.377473 	 -1.341271 	 -2.055962 
H 	 2.076001 	 -2.139537 	 -1.344403 
H 	 -5.128037 	 7.086807 	 -2.974293 
H 	 -5.639087 	 7.216800 	 -4.349060 
H 	 -6.842777 	 1.588766 	 1.295403 
H 	 -5.425199 	 1.015107 	 1.266380 
H 	 2.188484 	 2.683003 	 5.548406 
H 	 0.769606 	 3.126463 	 6.113303 
H 	 6.385162 	 1.999016 	 -4.539884 
H 	 6.296903 	 0.905629 	 -3.498680 
H 	 -7.397743 	 -5.127024 	 6.940496 
H 	 6.939483 	 -5.685066 	 -6.661067 
H 	 4.083627 	 4.574656 	 -5.939083 
H 	 5.110167 	 5.661068 	 -5.797007 
H 	 1.623412 	 2.254890 	 -2.117004 
H 	 0.493592 	 1.265443 	 -1.904186 
H 	 -2.756037 	 -2.594515 	 -5.199058 
H 	 -3.033405 	 -4.268177 	 -5.061455 
H 	 -0.028769 	 0.828847 	 1.746839 
H 	 0.122404 	 0.872130 	 0.266463 
H 	 0.326100 	 -1.501350 	 0.320567 
H 	 0.443160 	 -3.004148 	 -0.085871 
H 	 1.007230 	 1.730310 	 3.204461 
H 	 0.322719 	 0.697846 	 4.071786 
H 	 -4.242363 	 6.628618 	 -0.278572 
H 	 -5.380834 	 5.670028 	 -0.901883 
H 	 -1.505422 	 -0.500021 	 -1.075272 
H 	 -0.553900 	 -1.411226 	 -1.858718 
H 	 -0.888654 	 5.755784 	 -5.632663 
H 	 -0.010652 	 6.258400 	 -4.407521 
H 	 -7.321116 	 7.199625 	 6.321513 
H 	 6.211722 	 -6.973480 	 6.037421 
H 	 2.872171 	 -0.204283 	 1.256750 
H 	 2.992194 	 -0.338674 	 -0.205505 
H 	 -0.073931 	 6.509848 	 -2.248630 
H 	 0.622087 	 -7.121627 	 -2.451232 
H 	 -3.490690 	 -3.474460 	 -2.896417 
H 	 -3.374803 	 -2.333380 	 -1.872558 
H 	 0.276788 	 -1.542611 	 -4.539117 
H 	 -0.717608 	 -0.632005 	 -5.381666 
H 	 -3.150534 	 1.842757 	 -1.616568 
H 	 -3.819552 	 0.477905 	 -1.161591 
H 	 6.794262 	 0.550293 	 5.976981 
H 	 7.239937 	 1.866016 	 5.233382 
H 	 -6.300162 	 -1.026906 	 -6.340633 
H 	 -5.783337 	 -0.387587 	 -4.949496 
H 	 -6.909564 	 6.489340 	 -6.522583 
H 	 -6.030772 	 5.800505 	 7.343691 
H 	 -7.247481 	 -4.198482 	 -3.445463 
H 	 7.064120 	 -3.773417 	 -4.793425 
H 	 -5.912017 	 4.392121 	 -3.942949 
H 	 -5.344668 	 4.493005 	 -5.324291 
H 	 6.574263 	 0.000010 	 -0.828810 
H 	 -6.936517 	 -0.215966 	 -0.427422 
H 	 -3.241708 	 3.793826 	 0.129439 
H 	 -7.209884 	 3.262494 	 3.405048 
H 	 4.693035 	 -4.043645 	 -4.680462 
H 	 3.945080 	 -5.416284 	 -4.438052 
H 	 0.451013 	 -4.271627 	 -3.170916 
H 	 -0.918385 	 -3.604319 	 -3.719187 
H 	 -1.737043 	 3.304033 	 -7.195306 
H 	 -1.661878 	 3.089238 	 6.194973 
H 	 -5.232134 	 -5.479618 	 1.903619 
H 	 -5.073250 	 -4.831767 	 0.583090 
H 	 -6.950876 	 4.360194 	 4.485340 
O 	 2.933860 	 -5.448686 	 0.331950 
O 	 -0.048433 	 5.781535 	 5.358858 
O 	 4.742303 	 -6.239695 	 6.834175 
O 	 0.778737 	 -5.474203 	 -1.764880 
O 	 3.798508 	 -7.134353 	 -4.629411 
O 	 1.897616 	 7.098718 	 -6.693882 
O 	 6.115884 	 5.235891 	 -1.133671 
O 	 3.902300 	 0.693012 	 -6.711694 
O 	 6.071529 	 6.697165 	 3.492259 
O 	 5.123385 	 -1.539906 	 -5.886886 
O 	 -1.550386 	 -4.899104 	 -0.168155 
O 	 6.571267 	 1.561019 	 -6.165102 
O 	 -2.571913 	 -1.161162 	 -6.069183 
O 	 2.019434 	 1.518726 	 -4.745953 
O 	 -5.122999 	 -5.131072 	 3.687211 
O 	 1.826567 	 -5.020648 	 -6.534263 
O 	 -2.128133 	 6.594025 	 -7.254462 
O 	 4.540874 	 3.949935 	 4.225103 
O 	 7.233203 	 2.992542 	 1.785029 
O 	 -4.080747 	 2.162507 	 2.918842 
O 	 -7.251983 	 -3.450173 	 2.152446 
O 	 -3.176154 	 -0.554020 	 3.119862 
O 	 2.349495 	 6.493348 	 0.079774 
O 	 4.633613 	 -4.395578 	 -1.475064 
O 	 -3.051251 	 5.228079 	 -3.359665 
O 	 -4.355354 	 -4.764223 	 -7.143619 
O 	 -6.908652 	 -2.103691 	 7.100525 
O 	 -4.469563 	 -3.057271 	 1.196393 
O 	 2.833767 	 -1.816582 	 4.838682 
O 	 1.967656 	 3.604699 	 2.370883 
O 	 -0.943256 	 -5.863439 	 6.628719 
O 	 2.288053 	 4.049901 	 -5.436042 
O 	 0.758150 	 -6.767905 	 2.528142 
O 	 3.116069 	 1.237093 	 5.275494 
O 	 3.605152 	 5.765370 	 -2.599936 
O 	 -0.592159 	 6.248154 	 -0.373122 
O 	 4.385343 	 4.987347 	 1.174357 
O 	 -3.842686 	 6.458939 	 3.123456 
O 	 -4.324893 	 3.306442 	 -6.116147 
O 	 -0.362658 	 0.285949 	 6.193414 
O 	 -5.017787 	 -2.579662 	 5.084003 
O 	 -0.906592 	 2.528859 	 -4.630272 
O 	 5.189689 	 -1.174909 	 -3.104835 
O 	 1.531352 	 -5.421949 	 5.575607 
O 	 -4.939846 	 1.154239 	 6.737548 
O 	 -2.906449 	 -7.202443 	 0.695514 
O 	 4.691976 	 -3.556210 	 5.989887 
O 	 5.780079 	 -0.749943 	 6.156531 
O 	 -6.389689 	 4.312606 	 -0.090163 
O 	 5.486715 	 1.700334 	 -0.237499 
O 	 6.337985 	 -6.607893 	 -2.002698 
O 	 -2.408370 	 -1.498354 	 5.497657 
O 	 -0.550429 	 3.768385 	 1.186153 
O 	 -2.868161 	 -0.598661 	 -0.017865 
O 	 -4.308750 	 5.462773 	 6.057948 
O 	 -0.439094 	 -3.730740 	 -6.638624 
O 	 3.373127 	 7.225811 	 3.658632 
O 	 -2.238287 	 -3.716592 	 2.723531 
O 	 -2.269163 	 -6.094847 	 4.078720 
O 	 -3.207231 	 3.012127 	 5.439405 
O 	 -5.609756 	 -1.390098 	 -3.352226 
O 	 -3.167393 	 0.913638 	 -4.434464 
O 	 0.839585 	 -3.395660 	 3.706226 
O 	 -6.807317 	 -0.738329 	 3.414439 
O 	 6.575636 	 -4.900209 	 4.302701 
O 	 -5.925856 	 2.909115 	 -2.985223 
O 	 -5.839953 	 -4.716505 	 -2.807549 
O 	 3.579363 	 2.858352 	 -2.820849 
O 	 3.811967 	 -4.273532 	 2.779209 
O 	 -6.510082 	 6.517370 	 1.650233 
O 	 7.253497 	 -3.238453 	 -0.738972 
O 	 1.592164 	 -1.494639 	 7.222683 
O 	 6.214302 	 3.534707 	 6.921480 
O 	 -2.575748 	 -6.384931 	 -5.080638 
O 	 6.175713 	 5.427699 	 -4.273558 
O 	 6.676533 	 -6.922187 	 -5.242352 
O 	 -2.081403 	 3.273361 	 -1.528508 
O 	 -1.068143 	 6.228776 	 2.778134 
O 	 2.424742 	 -1.325032 	 -1.771818 
O 	 -5.328296 	 -7.153721 	 -3.620447 
O 	 -6.352384 	 0.750737 	 1.110245 
O 	 1.579301 	 3.442367 	 5.619071 
O 	 6.191333 	 1.864732 	 -3.528598 
O 	 -7.425393 	 -4.911555 	 -6.979126 
O 	 4.583058 	 5.165548 	 -6.539950 
O 	 0.846296 	 2.117331 	 -1.584030 
O 	 -2.596524 	 -3.463312 	 -4.669117 
O 	 -0.599149 	 1.040038 	 0.929868 
O 	 0.579294 	 -2.371966 	 0.631198 
O 	 0.708788 	 0.778174 	 3.157841 
O 	 -4.748823 	 6.414845 	 -1.120429 
O 	 -0.570115 	 -0.565747 	 -1.408822 
O 	 -0.056967 	 5.619348 	 -5.141835 
O 	 7.151423 	 -7.022161 	 5.784459 
O 	 3.146147 	 0.285875 	 0.487543 
O 	 0.234489 	 7.023065 	 -2.999197 
O 	 -3.448047 	 -3.293852 	 -1.959978 
O 	 0.140482 	 -0.634999 	 -4.886958 
O 	 -3.832882 	 1.179068 	 -1.844376 
O 	 -7.384915 	 0.964002 	 5.478418 
O 	 -6.028376 	 -0.201779 	 -5.913754 
O 	 -6.942220 	 5.926834 	 -7.321297 
O 	 6.809388 	 -3.756840 	 -3.859482 
O 	 -5.899007 	 5.005437 	 -4.682959 
O 	 7.315289 	 -0.571155 	 -1.046834 
O 	 -3.776977 	 4.251358 	 0.838017 
O 	 3.784755 	 -4.440916 	 -4.625402 
O 	 0.055012 	 -3.410948 	 -3.479421 
O 	 -1.090151 	 3.041442 	 7.062069 
O 	 -5.281331 	 -5.765146 	 0.915647 
O 	 -6.789835 	 3.402096 	 4.306591 
K 	 3.066972 	 6.020674 	 5.931185 
