333
conformation = 11
H 	 2.584184 	 -6.284227 	 0.588679 
H 	 3.136485 	 -4.995692 	 1.183081 
H 	 -0.800588 	 5.962077 	 5.802945 
H 	 0.221344 	 4.837995 	 5.277436 
H 	 4.929166 	 -6.058629 	 -6.763813 
H 	 4.558236 	 -5.315898 	 6.855379 
H 	 0.196255 	 -5.313650 	 -1.011817 
H 	 1.754178 	 -5.164409 	 -0.922679 
H 	 3.699144 	 7.147917 	 -3.982113 
H 	 3.185727 	 -7.374103 	 -5.388681 
H 	 1.255495 	 6.760687 	 -6.097041 
H 	 1.749675 	 -6.793155 	 -6.629161 
H 	 7.105767 	 5.063718 	 -1.085403 
H 	 6.603329 	 6.468684 	 -1.350032 
H 	 3.232846 	 1.031471 	 -6.059632 
H 	 4.787597 	 1.352706 	 -6.548896 
H 	 6.866005 	 6.851709 	 2.810033 
H 	 6.419754 	 -7.310114 	 4.108421 
H 	 4.772759 	 -0.981335 	 -6.397231 
H 	 6.089481 	 -1.844297 	 -6.144119 
H 	 -1.905301 	 -5.311317 	 0.191168 
H 	 -2.220956 	 -4.123408 	 -0.732215 
H 	 7.242267 	 0.942671 	 -6.084725 
H 	 6.654854 	 2.280610 	 -6.887663 
H 	 -2.931644 	 -0.905166 	 -6.966452 
H 	 -3.086720 	 -0.412818 	 -5.448143 
H 	 1.393706 	 0.535859 	 -4.616830 
H 	 2.420969 	 1.609575 	 -3.752483 
H 	 -3.950270 	 -5.337433 	 4.196918 
H 	 -5.165849 	 -4.376565 	 4.395020 
H 	 0.993255 	 -4.651207 	 -6.519165 
H 	 2.336994 	 -4.744115 	 -5.760065 
H 	 -1.939908 	 -7.248179 	 7.038032 
H 	 -2.919026 	 6.364002 	 6.967193 
H 	 5.152043 	 3.852426 	 4.957740 
H 	 3.862852 	 3.154766 	 4.439253 
H 	 -7.104945 	 3.709307 	 0.786295 
H 	 6.400876 	 2.918129 	 1.032574 
H 	 -5.236985 	 2.538439 	 3.136590 
H 	 -4.135081 	 2.928830 	 2.173836 
H 	 7.405011 	 -3.008012 	 0.994090 
H 	 -7.159129 	 -2.402875 	 2.444003 
H 	 -3.801789 	 0.238607 	 2.830668 
H 	 -3.659545 	 -1.301718 	 2.557456 
H 	 2.673288 	 6.134771 	 0.812575 
H 	 1.263883 	 6.568234 	 0.083968 
H 	 4.177821 	 -4.431344 	 -2.538611 
H 	 4.035435 	 -4.651379 	 -0.977013 
H 	 -3.471941 	 5.658636 	 -3.997334 
H 	 -3.961248 	 5.769034 	 -2.551485 
H 	 -3.999693 	 -5.500220 	 -6.955063 
H 	 -5.156655 	 -4.566652 	 7.492019 
H 	 -6.326765 	 -2.236533 	 6.331312 
H 	 -7.161311 	 -2.982301 	 7.305490 
H 	 -3.904558 	 -3.478561 	 1.833231 
H 	 -5.296247 	 -3.059151 	 1.354871 
H 	 2.410938 	 -1.831449 	 4.079834 
H 	 2.338369 	 -1.402342 	 5.587141 
H 	 2.562946 	 3.774990 	 1.851263 
H 	 2.247676 	 4.298729 	 3.319236 
H 	 -1.006239 	 -4.877430 	 7.119313 
H 	 -0.172291 	 -5.930522 	 6.349389 
H 	 2.185363 	 3.152723 	 -5.703263 
H 	 1.496806 	 4.505203 	 -5.585387 
H 	 0.762291 	 -6.325320 	 3.391670 
H 	 0.469483 	 -7.254434 	 2.292835 
H 	 3.175669 	 0.456861 	 4.972849 
H 	 3.609821 	 1.274456 	 6.308053 
H 	 4.082335 	 5.642704 	 -1.908766 
H 	 2.658646 	 5.965139 	 -2.010048 
H 	 -0.803798 	 5.290833 	 -0.218730 
H 	 -1.413428 	 6.771363 	 -0.131258 
H 	 4.741051 	 5.114225 	 2.047501 
H 	 5.079138 	 5.339393 	 0.577890 
H 	 -4.798749 	 6.359399 	 2.768652 
H 	 -3.368338 	 5.754556 	 2.861811 
H 	 -4.644332 	 3.040618 	 -5.392063 
H 	 -4.543167 	 2.705703 	 -6.817653 
H 	 -0.308043 	 1.612923 	 6.259327 
H 	 -1.131492 	 0.386657 	 6.191988 
H 	 -5.729626 	 -1.774689 	 4.150710 
H 	 -4.448033 	 -1.982762 	 5.174035 
H 	 -0.851919 	 3.855152 	 -4.557581 
H 	 -0.173470 	 2.437506 	 -4.359579 
H 	 5.115476 	 -0.668226 	 -4.191224 
H 	 5.661032 	 -1.660604 	 -3.071234 
H 	 1.888522 	 -5.086537 	 6.136032 
H 	 1.367982 	 -4.794139 	 4.689480 
H 	 -4.691758 	 0.571253 	 -7.261515 
H 	 -5.562369 	 1.004802 	 6.547926 
H 	 -2.617323 	 -7.295107 	 1.762730 
H 	 -3.773184 	 -6.571887 	 0.871405 
H 	 3.848218 	 -3.012326 	 5.646460 
H 	 5.116620 	 -3.634434 	 4.863320 
H 	 6.381426 	 -1.331275 	 6.474594 
H 	 5.122276 	 -1.396870 	 5.595379 
H 	 -4.764983 	 4.306614 	 0.596705 
H 	 -6.103583 	 3.858776 	 -0.957429 
H 	 4.818663 	 1.108491 	 0.082699 
H 	 4.695354 	 2.295425 	 -0.804722 
H 	 7.148626 	 -6.037689 	 -2.019762 
H 	 5.685762 	 -6.156409 	 -1.563538 
H 	 -1.995486 	 -2.128490 	 5.148758 
H 	 -2.730878 	 -0.767518 	 4.863815 
H 	 -0.776557 	 3.010186 	 1.089441 
H 	 0.511098 	 3.720793 	 1.677011 
H 	 -2.275491 	 0.000379 	 0.390243 
H 	 -3.431554 	 -1.025493 	 0.579949 
H 	 -4.205057 	 4.714695 	 5.817787 
H 	 -4.383758 	 5.969375 	 4.968502 
H 	 0.046671 	 -2.749200 	 -6.417110 
H 	 -1.259312 	 -3.546415 	 -5.859557 
H 	 2.998651 	 -7.225872 	 2.906430 
H 	 4.510939 	 7.102744 	 3.290361 
H 	 -2.058640 	 -4.601215 	 2.768688 
H 	 -1.753499 	 -3.499885 	 1.747730 
H 	 -2.562281 	 -6.966524 	 4.036983 
H 	 -1.893249 	 -5.828182 	 4.972724 
H 	 -3.327812 	 2.864105 	 4.354822 
H 	 -3.836110 	 2.249838 	 5.666706 
H 	 -6.250432 	 -0.983556 	 -2.942147 
H 	 -5.732423 	 -2.423204 	 -3.505349 
H 	 -2.424824 	 1.633348 	 -4.492925 
H 	 -3.355265 	 0.876707 	 -3.460403 
H 	 1.377494 	 -3.554292 	 2.719049 
H 	 0.009502 	 -3.158141 	 3.444357 
H 	 -6.995920 	 -0.164427 	 4.064145 
H 	 -6.518591 	 -0.209752 	 2.543592 
H 	 7.059792 	 -4.005019 	 3.375057 
H 	 7.176907 	 -5.176893 	 4.412457 
H 	 -6.733972 	 2.539079 	 -3.342739 
H 	 -5.310992 	 2.523704 	 -2.730086 
H 	 -4.983211 	 -4.101493 	 -2.547786 
H 	 -5.624540 	 -5.037883 	 -3.623225 
H 	 4.605108 	 2.515861 	 -3.366578 
H 	 3.358238 	 3.478088 	 -3.302832 
H 	 3.402888 	 -3.690471 	 3.372886 
H 	 4.309971 	 -4.822731 	 2.948395 
H 	 -7.013380 	 5.969335 	 1.039347 
H 	 -6.414667 	 -7.478698 	 1.271930 
H 	 6.352106 	 -3.496695 	 -1.059736 
H 	 7.015079 	 -2.068557 	 -0.733976 
H 	 1.050429 	 -0.722753 	 7.182384 
H 	 2.326053 	 -0.955497 	 -7.082903 
H 	 6.598755 	 4.428835 	 6.763989 
H 	 5.329037 	 4.056778 	 7.475593 
H 	 -2.380256 	 -7.194995 	 -5.732362 
H 	 -2.621075 	 -6.729480 	 -4.297813 
H 	 7.143520 	 5.204545 	 -4.466182 
H 	 6.056789 	 5.444925 	 -3.431505 
H 	 7.250707 	 -7.138591 	 -4.589441 
H 	 6.019779 	 -7.455198 	 -5.218569 
H 	 -1.169848 	 3.047098 	 -1.470361 
H 	 -2.164621 	 4.146744 	 -2.042135 
H 	 -0.731716 	 5.382004 	 2.300047 
H 	 -0.816174 	 6.175526 	 3.635308 
H 	 3.414621 	 -1.047425 	 -2.509494 
H 	 2.844594 	 -2.048005 	 -1.443639 
H 	 -5.199095 	 -7.298761 	 -2.690496 
H 	 -5.242496 	 6.867932 	 -3.999891 
H 	 -6.920505 	 1.735024 	 1.364491 
H 	 -5.644840 	 0.989330 	 0.821581 
H 	 2.003341 	 2.989717 	 5.634286 
H 	 0.999764 	 3.620041 	 6.739198 
H 	 6.342956 	 1.866723 	 -4.418996 
H 	 6.315481 	 1.086505 	 -3.126432 
H 	 7.190409 	 -5.493955 	 7.280543 
H 	 -7.234485 	 -5.193578 	 -6.223162 
H 	 3.693532 	 4.619396 	 -6.395018 
H 	 5.014230 	 5.038812 	 -5.672639 
H 	 1.556728 	 2.287652 	 -1.335192 
H 	 0.759047 	 1.161450 	 -1.901390 
H 	 -3.009488 	 -2.713384 	 -5.366669 
H 	 -3.168421 	 -4.365643 	 -5.343515 
H 	 -0.035088 	 1.073351 	 1.332793 
H 	 -0.152681 	 1.230558 	 -0.100011 
H 	 0.325944 	 -2.016193 	 0.010926 
H 	 0.401741 	 -3.437277 	 0.632852 
H 	 1.533439 	 1.679283 	 3.112732 
H 	 0.670725 	 0.987690 	 4.117472 
H 	 -4.079162 	 6.669741 	 -0.400627 
H 	 -5.477804 	 6.014800 	 -0.652178 
H 	 -1.379002 	 -1.063991 	 -1.387846 
H 	 -0.207119 	 -1.109239 	 -2.433789 
H 	 -0.952693 	 5.941863 	 -5.873001 
H 	 -0.174102 	 6.267184 	 -4.485420 
H 	 7.317430 	 7.319684 	 6.067929 
H 	 5.855570 	 -6.846016 	 6.284054 
H 	 3.253339 	 -0.299139 	 0.991671 
H 	 2.844784 	 -0.079571 	 -0.417877 
H 	 0.049318 	 6.960629 	 -2.115225 
H 	 0.639123 	 -6.935150 	 -2.973694 
H 	 -2.785468 	 -2.892236 	 -2.604975 
H 	 -3.571983 	 -2.486490 	 -1.325186 
H 	 0.260951 	 -1.536165 	 -4.693731 
H 	 -0.860014 	 -0.658659 	 -5.383924 
H 	 -3.196838 	 2.133647 	 -1.601580 
H 	 -3.823814 	 0.702264 	 -1.231823 
H 	 6.774191 	 0.781965 	 5.847068 
H 	 -7.366490 	 2.085011 	 5.140008 
H 	 -6.438755 	 -0.843824 	 -6.568665 
H 	 -5.922943 	 -0.481599 	 -5.104548 
H 	 -6.884348 	 6.102155 	 -6.532277 
H 	 -5.936127 	 5.899411 	 7.228317 
H 	 -7.379500 	 -3.897069 	 -3.528533 
H 	 7.259200 	 -3.766394 	 -5.086941 
H 	 -5.771957 	 4.585561 	 -4.147171 
H 	 -5.343662 	 4.872771 	 -5.615885 
H 	 6.475605 	 0.287144 	 -1.360878 
H 	 -7.276473 	 0.193428 	 -0.322559 
H 	 -3.220316 	 3.957387 	 0.465445 
H 	 -7.143368 	 3.596973 	 3.268402 
H 	 4.572859 	 -3.981499 	 -4.895526 
H 	 3.799067 	 -5.322578 	 -4.604578 
H 	 0.679781 	 -3.457618 	 -3.022138 
H 	 -0.497026 	 -3.936465 	 -3.989501 
H 	 -1.078647 	 2.913900 	 -6.909741 
H 	 -1.995021 	 3.195947 	 6.662282 
H 	 -5.362121 	 -5.118788 	 1.789427 
H 	 -5.531416 	 -4.994625 	 0.331298 
H 	 -6.197078 	 4.212192 	 4.441806 
O 	 2.956003 	 -5.413051 	 0.324841 
O 	 -0.154229 	 5.776318 	 5.135389 
O 	 4.615457 	 -6.248802 	 7.199404 
O 	 0.999062 	 -5.304324 	 -1.573235 
O 	 3.916078 	 -7.158411 	 -4.745679 
O 	 1.926438 	 7.126651 	 -6.725892 
O 	 6.278628 	 5.534722 	 -1.264678 
O 	 3.903794 	 0.906740 	 -6.790755 
O 	 6.144948 	 6.830172 	 3.464110 
O 	 5.211267 	 -1.593802 	 -5.787798 
O 	 -1.449816 	 -4.543469 	 -0.248467 
O 	 6.590237 	 1.674153 	 -6.094636 
O 	 -2.724546 	 -1.113897 	 -6.011139 
O 	 1.991382 	 1.323557 	 -4.614962 
O 	 -4.917965 	 -5.223246 	 3.971791 
O 	 1.917820 	 -5.095007 	 -6.589167 
O 	 -2.159518 	 6.788810 	 -7.387720 
O 	 4.440018 	 3.937910 	 4.291067 
O 	 7.273010 	 3.114742 	 1.524054 
O 	 -4.364214 	 2.236928 	 2.775770 
O 	 -7.051639 	 -3.206372 	 1.883155 
O 	 -3.152041 	 -0.462926 	 2.790529 
O 	 2.230854 	 6.559040 	 -0.023181 
O 	 4.586208 	 -4.182091 	 -1.680112 
O 	 -3.219541 	 5.373011 	 -3.101813 
O 	 -4.193963 	 -4.583133 	 -7.154543 
O 	 -6.942796 	 -2.053789 	 7.110493 
O 	 -4.310960 	 -2.920917 	 1.153769 
O 	 2.948090 	 -1.534219 	 4.846471 
O 	 2.013912 	 3.615611 	 2.654595 
O 	 -1.111509 	 -5.760316 	 6.648008 
O 	 2.348005 	 4.102710 	 -5.525515 
O 	 1.090787 	 -6.521408 	 2.496017 
O 	 3.263105 	 1.365748 	 5.365869 
O 	 3.365322 	 5.709743 	 -2.587915 
O 	 -0.614893 	 6.293963 	 -0.451319 
O 	 4.383017 	 5.047817 	 1.169546 
O 	 -3.997927 	 6.361755 	 3.352265 
O 	 -4.186087 	 3.346812 	 -6.194671 
O 	 -0.202438 	 0.653014 	 6.180186 
O 	 -5.297638 	 -2.345424 	 4.872956 
O 	 -1.008902 	 2.861547 	 -4.692838 
O 	 5.232957 	 -0.761263 	 -3.176947 
O 	 1.452220 	 -5.512120 	 5.359854 
O 	 -4.621244 	 1.129874 	 6.866345 
O 	 -2.919749 	 -7.100324 	 0.826030 
O 	 4.700196 	 -3.492632 	 5.727430 
O 	 5.715501 	 -0.751885 	 6.060111 
O 	 -6.291397 	 4.391733 	 -0.154621 
O 	 5.400419 	 1.756383 	 -0.357319 
O 	 6.423997 	 -6.675822 	 -1.903153 
O 	 -2.485487 	 -1.413628 	 5.551591 
O 	 -0.296049 	 3.914399 	 1.185751 
O 	 -2.983162 	 -0.508049 	 -0.087066 
O 	 -4.429333 	 5.662628 	 5.863323 
O 	 -0.576209 	 -3.521384 	 -6.591296 
O 	 3.544690 	 7.099996 	 3.531078 
O 	 -2.051156 	 -3.631283 	 2.660987 
O 	 -2.214459 	 -6.040763 	 4.050722 
O 	 -3.364471 	 3.019493 	 5.349829 
O 	 -5.669062 	 -1.454070 	 -3.567500 
O 	 -3.122392 	 0.906860 	 -4.431587 
O 	 0.974918 	 -3.193390 	 3.544465 
O 	 -6.790410 	 -0.821846 	 3.302922 
O 	 6.538699 	 -4.635039 	 3.942449 
O 	 -5.997805 	 3.111969 	 -3.095306 
O 	 -5.846538 	 -4.519761 	 -2.790491 
O 	 3.676056 	 2.607295 	 -3.020052 
O 	 3.716840 	 -4.129220 	 2.599371 
O 	 -6.770227 	 6.627212 	 1.694584 
O 	 7.165798 	 -3.069095 	 -0.722283 
O 	 1.755006 	 -1.406076 	 7.230125 
O 	 5.972008 	 3.691123 	 6.798991 
O 	 -2.341332 	 -6.422568 	 -5.152158 
O 	 6.201347 	 5.461610 	 -4.390600 
O 	 6.702187 	 -6.748757 	 -5.299743 
O 	 -2.087550 	 3.469324 	 -1.362137 
O 	 -1.016629 	 6.231174 	 2.709180 
O 	 2.634423 	 -1.252169 	 -1.889467 
O 	 -5.194257 	 -7.141732 	 -3.635503 
O 	 -6.563800 	 0.791321 	 1.062679 
O 	 1.508426 	 3.780044 	 5.916300 
O 	 6.403766 	 2.021362 	 -3.432728 
O 	 7.445185 	 -4.712019 	 -7.048582 
O 	 4.486289 	 5.200864 	 -6.541884 
O 	 0.706533 	 2.110904 	 -1.711232 
O 	 -2.714950 	 -3.586869 	 -4.945915 
O 	 -0.764690 	 1.117618 	 0.657030 
O 	 0.782343 	 -2.557332 	 0.657791 
O 	 0.872408 	 0.947909 	 3.119929 
O 	 -4.790381 	 6.644964 	 -1.059909 
O 	 -0.452123 	 -0.818505 	 -1.527875 
O 	 -0.199896 	 5.679031 	 -5.307758 
O 	 6.852470 	 -6.765690 	 5.898132 
O 	 3.163635 	 0.428886 	 0.341184 
O 	 0.373820 	 7.000446 	 -3.024435 
O 	 -3.218048 	 -3.226591 	 -1.803876 
O 	 0.058536 	 -0.614837 	 -5.042824 
O 	 -3.868587 	 1.470813 	 -1.872533 
O 	 -7.309331 	 1.117914 	 5.464854 
O 	 -6.210611 	 -0.086505 	 -5.988052 
O 	 -6.877846 	 5.979132 	 7.398616 
O 	 6.806555 	 -3.610692 	 -4.209576 
O 	 -5.819808 	 5.279824 	 -4.845625 
O 	 7.137720 	 -0.347639 	 -0.960446 
O 	 -3.906632 	 4.266787 	 1.101587 
O 	 3.700223 	 -4.324280 	 -4.651667 
O 	 0.047944 	 -3.162151 	 -3.725839 
O 	 -1.043761 	 3.125797 	 7.026087 
O 	 -5.383467 	 -5.710935 	 0.958883 
O 	 -6.581222 	 3.402658 	 4.052102 
K 	 3.132707 	 6.169115 	 5.864619 
