333
conformation = 2
H 	 -5.300744 	 6.486912 	 -5.998664 
H 	 -4.555219 	 -7.068000 	 -5.313695 
H 	 6.300470 	 3.889309 	 -0.612220 
H 	 7.093772 	 2.690810 	 -1.086812 
H 	 -2.845465 	 6.685607 	 1.683648 
H 	 -3.143487 	 7.368859 	 0.310783 
H 	 -7.632225 	 -7.391613 	 -7.574241 
H 	 -6.145046 	 -7.311610 	 -7.273980 
H 	 -4.076304 	 4.993267 	 4.448397 
H 	 -4.501397 	 5.407110 	 2.979143 
H 	 -6.537016 	 4.665276 	 2.333736 
H 	 -6.041884 	 5.963076 	 1.710589 
H 	 -0.630857 	 2.935724 	 7.290759 
H 	 -1.287054 	 4.396679 	 7.009819 
H 	 -4.518512 	 -0.933451 	 2.362948 
H 	 -3.012570 	 -0.945325 	 1.894384 
H 	 -0.858977 	 4.687881 	 -3.643187 
H 	 -1.278945 	 5.307937 	 -2.371640 
H 	 -2.972948 	 -3.150517 	 2.007838 
H 	 -1.724525 	 -4.025031 	 2.297109 
H 	 5.282551 	 7.456595 	 -6.295938 
H 	 4.965264 	 -6.284426 	 -7.265459 
H 	 -0.548587 	 -1.211842 	 2.289214 
H 	 -1.043759 	 0.148986 	 1.597590 
H 	 4.250680 	 -3.104057 	 1.497853 
H 	 3.994986 	 -2.464764 	 3.011310 
H 	 -6.402245 	 -1.638334 	 3.759331 
H 	 -5.370388 	 -0.721685 	 4.689723 
H 	 3.139731 	 7.439784 	 -2.181353 
H 	 1.885477 	 -6.518176 	 -2.145747 
H 	 -6.772940 	 -6.970928 	 1.943470 
H 	 -5.413507 	 -6.898542 	 2.639828 
H 	 5.278031 	 5.490036 	 0.657639 
H 	 4.190977 	 4.237550 	 0.578323 
H 	 -2.680720 	 1.647931 	 -1.452944 
H 	 -3.963419 	 1.033725 	 -2.050992 
H 	 0.058167 	 1.546384 	 -5.587036 
H 	 -1.332325 	 0.901032 	 -5.464805 
H 	 1.903041 	 0.461819 	 -3.250256 
H 	 2.970304 	 0.890399 	 -4.338395 
H 	 -0.425178 	 -5.232456 	 -5.449817 
H 	 -0.101694 	 -4.548305 	 -4.027496 
H 	 3.301683 	 -1.856951 	 -3.689865 
H 	 3.439546 	 -3.360948 	 -3.906310 
H 	 -5.069879 	 4.052166 	 -5.799633 
H 	 -6.542018 	 4.430519 	 -6.367765 
H 	 -3.594581 	 -6.424370 	 5.854109 
H 	 -3.821255 	 -6.796314 	 7.316906 
H 	 3.700208 	 3.560842 	 4.480802 
H 	 3.208301 	 3.622513 	 5.961096 
H 	 3.181101 	 7.215383 	 1.375207 
H 	 1.965398 	 -6.805748 	 1.202330 
H 	 0.776117 	 -4.385417 	 -0.127712 
H 	 -0.111665 	 -5.152881 	 0.949767 
H 	 3.333264 	 -5.593556 	 -4.687858 
H 	 1.873863 	 -5.208966 	 -5.080482 
H 	 -5.430914 	 -3.941762 	 -2.334794 
H 	 -5.464718 	 -3.561535 	 -0.826707 
H 	 -5.191227 	 1.683462 	 -4.545502 
H 	 -5.487652 	 2.132910 	 -3.111526 
H 	 5.999044 	 -7.047066 	 0.619176 
H 	 6.880207 	 6.738021 	 -0.100236 
H 	 -5.600641 	 0.993379 	 2.808143 
H 	 -6.344615 	 2.443224 	 2.765347 
H 	 -6.988549 	 6.499578 	 -3.067325 
H 	 -7.294198 	 5.554009 	 -4.188217 
H 	 -4.384758 	 -1.648682 	 -1.405110 
H 	 -4.119561 	 -0.851505 	 -0.176594 
H 	 -3.740569 	 3.549904 	 6.575877 
H 	 -5.258797 	 3.933965 	 6.342545 
H 	 6.358919 	 3.233055 	 -6.673848 
H 	 5.740124 	 4.578883 	 -6.450944 
H 	 -3.033420 	 3.111759 	 -4.380067 
H 	 -2.640909 	 3.095502 	 -5.883240 
H 	 2.285300 	 4.179503 	 -3.641643 
H 	 3.791687 	 3.724959 	 -3.519726 
H 	 2.526990 	 0.852808 	 3.113615 
H 	 2.652871 	 0.524988 	 1.563277 
H 	 6.702802 	 -0.473134 	 -0.101679 
H 	 6.046371 	 -1.832694 	 -0.246430 
H 	 1.333492 	 -4.009410 	 -2.333011 
H 	 2.588009 	 -3.962553 	 -1.296725 
H 	 6.201824 	 1.702789 	 3.811845 
H 	 6.958900 	 0.368046 	 4.039466 
H 	 -2.782910 	 -2.797562 	 4.322672 
H 	 -2.095955 	 -3.691648 	 5.361937 
H 	 -5.901329 	 -7.311247 	 -0.337256 
H 	 -6.421578 	 -6.872580 	 -1.679851 
H 	 2.467838 	 -1.666603 	 1.223169 
H 	 1.615490 	 -1.135091 	 0.049927 
H 	 4.452224 	 5.406765 	 -4.717778 
H 	 3.386183 	 6.198388 	 -5.374325 
H 	 -3.936150 	 -5.172384 	 -0.868738 
H 	 -2.554418 	 -5.851997 	 -1.584790 
H 	 -1.417606 	 -3.391505 	 0.130664 
H 	 -2.612031 	 -3.489382 	 -0.941024 
H 	 2.292494 	 2.189137 	 -5.838291 
H 	 1.015559 	 1.657219 	 -7.361148 
H 	 -2.959784 	 -0.943688 	 -6.189008 
H 	 -3.138483 	 0.147626 	 -7.200857 
H 	 -0.601901 	 6.692783 	 6.435046 
H 	 -2.047000 	 6.595134 	 7.012461 
H 	 5.168305 	 -4.152290 	 -1.413239 
H 	 4.548620 	 -2.899237 	 -1.649756 
H 	 6.449848 	 0.917240 	 -5.351261 
H 	 -7.205871 	 1.741156 	 -4.817045 
H 	 4.812794 	 -2.143106 	 -6.035215 
H 	 3.756158 	 -3.173795 	 -5.782624 
H 	 2.986600 	 2.598470 	 -0.559513 
H 	 2.623030 	 3.723371 	 -1.638163 
H 	 7.113158 	 -4.889964 	 1.986831 
H 	 5.840250 	 -5.693566 	 2.587113 
H 	 -4.793913 	 5.462243 	 -3.563772 
H 	 -3.301949 	 5.103405 	 -3.237969 
H 	 5.157455 	 -6.725061 	 -3.561154 
H 	 5.336191 	 -5.673677 	 -4.760379 
H 	 4.666152 	 5.756458 	 -2.340083 
H 	 5.257266 	 6.944743 	 -1.500225 
H 	 3.776636 	 0.738277 	 -2.065994 
H 	 3.271611 	 0.040204 	 -0.755314 
H 	 0.675314 	 -3.280840 	 5.432699 
H 	 1.308013 	 -4.569440 	 4.958079 
H 	 4.641812 	 -0.555084 	 3.850728 
H 	 3.751982 	 -1.262703 	 4.977179 
H 	 -6.466765 	 -5.640881 	 -3.779364 
H 	 7.162474 	 -5.186010 	 -3.292132 
H 	 0.139881 	 -2.394586 	 -2.401791 
H 	 0.538336 	 -2.408183 	 -3.935130 
H 	 -0.772565 	 -6.068744 	 -3.061237 
H 	 -0.598196 	 -7.318853 	 -2.162121 
H 	 0.294260 	 0.432491 	 5.121465 
H 	 1.739956 	 0.436229 	 5.890881 
H 	 2.152337 	 -6.256893 	 5.877128 
H 	 1.514110 	 -7.094644 	 4.839935 
H 	 -3.207171 	 0.390609 	 5.025432 
H 	 -4.372805 	 1.326981 	 5.106072 
H 	 -4.419143 	 -5.849328 	 -3.027993 
H 	 -3.433115 	 -6.914432 	 -3.527638 
H 	 0.162485 	 3.839527 	 -5.487976 
H 	 0.685368 	 5.351132 	 -5.156976 
H 	 -1.500699 	 -5.521580 	 -7.497070 
H 	 -0.821546 	 -4.241351 	 -7.169800 
H 	 -6.790652 	 -2.930137 	 0.660319 
H 	 -5.390789 	 -3.114017 	 1.453959 
H 	 -1.141702 	 2.290885 	 0.264239 
H 	 -2.465112 	 1.931412 	 1.010813 
H 	 4.687566 	 5.570389 	 2.653833 
H 	 4.448161 	 5.908622 	 4.143944 
H 	 -0.675745 	 2.964107 	 3.866369 
H 	 -1.678934 	 3.213953 	 5.041983 
H 	 -0.464819 	 5.723847 	 3.860113 
H 	 -1.792072 	 5.362711 	 3.208030 
H 	 5.887653 	 0.969691 	 7.007176 
H 	 4.959941 	 2.047520 	 6.385931 
H 	 6.604079 	 3.324145 	 -4.135635 
H 	 6.313494 	 4.013384 	 -2.786992 
H 	 -4.338451 	 -3.025225 	 6.060239 
H 	 -4.960008 	 -4.283091 	 6.949247 
H 	 2.005247 	 5.485842 	 5.799953 
H 	 1.731632 	 4.727201 	 4.396171 
H 	 0.183687 	 -0.473951 	 -5.113863 
H 	 1.428143 	 -1.139503 	 -5.766686 
H 	 -5.840211 	 0.805136 	 -0.710640 
H 	 -6.858925 	 1.454346 	 0.263439 
H 	 -1.329825 	 -0.201521 	 4.045573 
H 	 -1.374473 	 -1.048030 	 5.291506 
H 	 -0.691763 	 7.399458 	 0.739528 
H 	 -0.104629 	 7.428265 	 2.111439 
H 	 -4.165936 	 2.608536 	 2.205739 
H 	 -2.808353 	 3.039569 	 2.726140 
H 	 -6.270053 	 0.144085 	 7.212612 
H 	 -7.082809 	 -1.007057 	 6.472979 
H 	 4.106871 	 -4.934146 	 3.036340 
H 	 3.953964 	 -6.528032 	 3.089509 
H 	 6.997522 	 -1.171751 	 -5.124593 
H 	 6.785241 	 -0.972586 	 -6.677347 
H 	 -7.368311 	 -4.141603 	 -6.489361 
H 	 -7.470773 	 -5.580396 	 -5.926115 
H 	 -6.185684 	 -0.503073 	 -3.370678 
H 	 -7.047850 	 -1.289840 	 -2.382644 
H 	 2.950479 	 4.455695 	 -6.739370 
H 	 1.645025 	 3.816968 	 -7.343159 
H 	 5.723495 	 -3.182191 	 7.002657 
H 	 6.843880 	 -3.385648 	 6.002600 
H 	 6.162129 	 3.802855 	 2.530497 
H 	 6.883062 	 4.079228 	 3.956084 
H 	 -0.459125 	 5.182252 	 -0.346307 
H 	 -1.831910 	 5.922355 	 -0.143401 
H 	 -4.518575 	 -2.339588 	 -5.408955 
H 	 -4.837870 	 -2.362289 	 -6.903306 
H 	 7.123128 	 4.776189 	 6.347025 
H 	 -6.982084 	 5.744358 	 5.481493 
H 	 4.295992 	 -5.096105 	 5.803178 
H 	 3.576216 	 -4.636399 	 7.232435 
H 	 -7.554544 	 -3.679017 	 3.662613 
H 	 6.240435 	 -2.765596 	 3.037376 
H 	 3.915241 	 0.007836 	 6.897914 
H 	 3.306198 	 -1.374203 	 7.197175 
H 	 -1.023423 	 -1.307506 	 -0.572437 
H 	 -0.266781 	 -0.124549 	 -1.273687 
H 	 0.662731 	 -3.024214 	 1.891076 
H 	 1.109951 	 -2.586817 	 3.305076 
H 	 0.125141 	 4.070900 	 1.843539 
H 	 1.207010 	 3.711933 	 0.688009 
H 	 -0.342579 	 -5.964029 	 4.841442 
H 	 -0.551301 	 -5.852663 	 3.354687 
H 	 1.288325 	 2.390869 	 4.258151 
H 	 1.884737 	 2.753539 	 2.906103 
H 	 -1.348677 	 -1.893194 	 7.182143 
H 	 -0.253387 	 -1.934903 	 -6.664825 
H 	 3.719915 	 1.595008 	 -5.951131 
H 	 0.025614 	 1.445114 	 -3.246064 
H 	 -3.199633 	 -6.156381 	 3.511292 
H 	 -3.950875 	 7.463707 	 3.870484 
H 	 -7.110721 	 -5.537692 	 5.390070 
H 	 6.734789 	 -6.144401 	 4.544142 
H 	 5.990702 	 0.748962 	 1.518215 
H 	 5.181403 	 1.069869 	 0.320692 
H 	 1.694652 	 7.432459 	 -4.622678 
H 	 1.535412 	 -7.165851 	 -6.148405 
H 	 0.911310 	 2.122516 	 -2.106972 
O 	 -4.823582 	 7.323576 	 -6.130617 
O 	 6.956192 	 3.622181 	 -1.321354 
O 	 -3.209638 	 6.512476 	 0.803094 
O 	 -6.765376 	 7.481841 	 6.885806 
O 	 -3.860850 	 5.577001 	 3.692262 
O 	 -5.860344 	 4.980179 	 1.730381 
O 	 -1.495005 	 3.442452 	 7.171130 
O 	 -3.903076 	 -1.214974 	 1.653099 
O 	 -1.636123 	 4.697881 	 -2.993493 
O 	 -2.559125 	 -3.756420 	 2.673947 
O 	 5.682489 	 -6.643540 	 -6.684986 
O 	 -1.203995 	 -0.450497 	 2.355408 
O 	 4.367442 	 -3.249716 	 2.437581 
O 	 -5.799228 	 -0.855365 	 3.834509 
O 	 2.215265 	 -7.381539 	 -2.447007 
O 	 -5.871454 	 -7.237684 	 1.843128 
O 	 4.947899 	 4.652280 	 1.030242 
O 	 -3.357736 	 1.775216 	 -2.145220 
O 	 -0.532579 	 0.992148 	 -4.974519 
O 	 2.700921 	 0.084152 	 -3.694088 
O 	 0.105256 	 -5.307619 	 -4.618393 
O 	 3.963702 	 -2.610325 	 -3.689236 
O 	 -5.575259 	 4.430701 	 -6.486686 
O 	 -3.211071 	 -6.311951 	 6.744165 
O 	 3.872159 	 3.242119 	 5.386507 
O 	 2.936812 	 -6.708602 	 1.283280 
O 	 0.173802 	 -4.218885 	 0.658537 
O 	 2.805747 	 -5.006247 	 -5.302641 
O 	 -4.829222 	 -3.625331 	 -1.620886 
O 	 -5.741166 	 1.466178 	 -3.752083 
O 	 5.977178 	 7.001381 	 0.173499 
O 	 -5.457384 	 1.949395 	 2.904781 
O 	 -6.649678 	 6.267294 	 -3.957629 
O 	 -4.519540 	 -0.738908 	 -1.072573 
O 	 -4.443849 	 3.543688 	 5.878985 
O 	 6.494274 	 4.146262 	 -6.920721 
O 	 -3.415310 	 2.891746 	 -5.273003 
O 	 3.073238 	 4.198944 	 -3.084219 
O 	 2.931333 	 1.203258 	 2.246648 
O 	 6.945771 	 -1.444894 	 -0.285204 
O 	 1.774655 	 -4.465630 	 -1.594108 
O 	 6.096597 	 0.770412 	 3.743029 
O 	 -2.554503 	 -2.854983 	 5.249843 
O 	 -6.346346 	 7.224881 	 -1.116045 
O 	 2.505046 	 -1.028077 	 0.440029 
O 	 4.189158 	 5.691813 	 -5.619250 
O 	 -3.090737 	 -5.657278 	 -0.741878 
O 	 -2.099698 	 -2.898429 	 -0.400978 
O 	 0.845007 	 2.268928 	 -6.625246 
O 	 -2.396591 	 -0.374521 	 -6.835678 
O 	 -1.341315 	 6.068734 	 6.557839 
O 	 4.598643 	 -3.553751 	 -0.885758 
O 	 6.809432 	 1.800762 	 -5.270739 
O 	 4.099872 	 -2.648996 	 -6.557067 
O 	 2.661281 	 3.547375 	 -0.590495 
O 	 6.520932 	 -5.628378 	 1.853438 
O 	 -4.234259 	 4.936314 	 -2.955877 
O 	 5.110388 	 -5.756579 	 -3.793904 
O 	 4.888812 	 6.703915 	 -2.390174 
O 	 3.722732 	 0.873107 	 -1.116078 
O 	 1.444752 	 -3.599051 	 4.867621 
O 	 3.993874 	 -1.219657 	 4.020684 
O 	 -6.806798 	 -5.330586 	 -2.928338 
O 	 0.332012 	 -2.965246 	 -3.162074 
O 	 -1.267550 	 -6.741760 	 -2.566680 
O 	 1.113348 	 0.995715 	 5.339533 
O 	 1.282768 	 -6.650419 	 5.659926 
O 	 -4.097289 	 0.433474 	 5.425570 
O 	 -4.076455 	 -6.257734 	 -3.866367 
O 	 0.321666 	 4.502083 	 -4.753176 
O 	 -0.638399 	 -5.203557 	 -7.164445 
O 	 -6.028416 	 -3.534111 	 0.791053 
O 	 -1.829235 	 1.566461 	 0.322269 
O 	 4.798743 	 6.332636 	 3.291372 
O 	 -1.586217 	 3.306753 	 4.063032 
O 	 -1.067905 	 6.014445 	 3.143703 
O 	 5.032376 	 1.355406 	 7.113599 
O 	 6.076885 	 4.077008 	 -3.791403 
O 	 -5.115905 	 -3.386903 	 6.528606 
O 	 1.932430 	 5.611980 	 4.817846 
O 	 0.559885 	 -1.355709 	 -5.366947 
O 	 -6.267334 	 1.672895 	 -0.495571 
O 	 -1.369846 	 -0.113191 	 5.040589 
O 	 -0.319056 	 -6.828425 	 1.390025 
O 	 -3.313216 	 3.043413 	 1.897225 
O 	 -7.099553 	 -0.048038 	 6.717452 
O 	 4.379300 	 -5.738017 	 3.486022 
O 	 6.314966 	 -1.017564 	 -5.807151 
O 	 -6.974116 	 -4.744031 	 -5.788416 
O 	 -6.889909 	 -1.171388 	 -3.319603 
O 	 2.313735 	 4.524055 	 -7.514727 
O 	 6.706116 	 -3.014827 	 6.882539 
O 	 6.887332 	 3.524531 	 3.118832 
O 	 -0.982146 	 6.029836 	 -0.513239 
O 	 -4.647304 	 -1.712383 	 -6.128272 
O 	 -7.396775 	 4.857254 	 5.422343 
O 	 3.917145 	 -5.365303 	 6.658054 
O 	 7.160055 	 -2.782015 	 3.400048 
O 	 3.221852 	 -0.641552 	 6.568489 
O 	 -0.159891 	 -1.008436 	 -0.991123 
O 	 0.879875 	 -2.218382 	 2.438411 
O 	 0.246722 	 3.830455 	 0.900169 
O 	 -0.996888 	 -5.717685 	 4.191365 
O 	 1.312283 	 3.163860 	 3.592115 
O 	 -0.661387 	 -2.475163 	 -7.435090 
O 	 3.196724 	 2.123847 	 -5.300769 
O 	 -4.095636 	 -6.459806 	 3.813150 
O 	 7.158057 	 -5.264794 	 4.706243 
O 	 6.083102 	 0.996583 	 0.590454 
O 	 1.708251 	 7.022921 	 -5.478998 
O 	 0.562913 	 1.258305 	 -2.432441 
K 	 -4.645638 	 4.046550 	 -0.580212 
