333
conformation = 38
H 	 2.897077 	 -6.373224 	 0.470266 
H 	 2.777025 	 -5.023603 	 1.220930 
H 	 -0.659249 	 5.542443 	 5.958729 
H 	 0.532840 	 5.065031 	 5.099045 
H 	 4.658943 	 -6.362282 	 -6.901644 
H 	 4.397365 	 -5.309541 	 6.885429 
H 	 0.174254 	 -5.166614 	 -1.038216 
H 	 1.716213 	 -5.430244 	 -1.128366 
H 	 3.801941 	 7.216194 	 -3.894415 
H 	 3.274375 	 7.243000 	 -5.372430 
H 	 1.059649 	 6.698171 	 -6.375879 
H 	 1.604393 	 -6.840824 	 -6.624975 
H 	 6.919918 	 4.986589 	 -0.682229 
H 	 6.387590 	 6.320278 	 -1.232919 
H 	 3.248953 	 0.851821 	 -6.012183 
H 	 4.823569 	 1.122455 	 -6.540295 
H 	 6.715478 	 6.925350 	 2.784208 
H 	 6.329235 	 -7.388952 	 4.152075 
H 	 4.760495 	 -0.812393 	 -6.404978 
H 	 6.025040 	 -1.719832 	 -6.124419 
H 	 -2.158837 	 -5.472172 	 0.070526 
H 	 -2.204267 	 -4.189610 	 -0.768871 
H 	 7.383911 	 1.067731 	 -6.118967 
H 	 6.499933 	 2.327630 	 -6.839822 
H 	 -3.005151 	 -1.006711 	 -6.988275 
H 	 -2.923741 	 -0.366220 	 -5.497716 
H 	 1.329877 	 0.760443 	 -4.311976 
H 	 2.642064 	 1.772842 	 -4.057001 
H 	 -4.089386 	 -5.466478 	 3.840911 
H 	 -5.057276 	 -4.300269 	 4.254454 
H 	 1.009397 	 -4.474224 	 -6.421166 
H 	 2.581527 	 -4.586942 	 -6.146728 
H 	 -1.870965 	 -7.299595 	 7.213613 
H 	 -3.034944 	 6.394406 	 7.056350 
H 	 5.192803 	 4.169128 	 4.812321 
H 	 4.304963 	 2.987066 	 4.288220 
H 	 -7.181014 	 3.542683 	 0.792557 
H 	 6.321037 	 2.755885 	 1.345515 
H 	 -5.145885 	 2.484693 	 3.152733 
H 	 -4.045632 	 2.786072 	 2.067611 
H 	 7.360893 	 -3.350479 	 1.088249 
H 	 -7.339154 	 -2.435673 	 2.375653 
H 	 -3.762443 	 0.279633 	 2.808179 
H 	 -3.795769 	 -1.252953 	 2.668566 
H 	 2.662640 	 5.825966 	 0.684615 
H 	 1.274166 	 6.460118 	 0.020315 
H 	 4.039517 	 -4.463819 	 -2.382462 
H 	 4.019553 	 -4.675745 	 -0.832095 
H 	 -3.705277 	 5.206211 	 -4.083939 
H 	 -3.881119 	 5.703546 	 -2.649970 
H 	 -4.392671 	 -5.559228 	 -6.759057 
H 	 -5.193555 	 -4.578365 	 7.303828 
H 	 -6.298680 	 -2.096182 	 6.381422 
H 	 -7.048122 	 -2.994679 	 7.215443 
H 	 -3.934792 	 -3.324322 	 1.964197 
H 	 -5.351857 	 -2.974548 	 1.479217 
H 	 2.093201 	 -1.793090 	 4.230616 
H 	 2.433364 	 -1.755296 	 5.744977 
H 	 2.725474 	 3.489917 	 1.926094 
H 	 2.069331 	 4.268304 	 3.166190 
H 	 -1.054871 	 -5.001372 	 7.285365 
H 	 -0.150384 	 -5.692547 	 6.217914 
H 	 2.045394 	 3.126600 	 -5.319301 
H 	 1.580497 	 4.590191 	 -5.259742 
H 	 0.893081 	 -6.656906 	 3.464673 
H 	 0.282300 	 -7.444271 	 2.348304 
H 	 2.673502 	 0.551427 	 4.836760 
H 	 3.415708 	 0.955953 	 6.230746 
H 	 4.287732 	 5.455189 	 -2.217913 
H 	 2.947479 	 5.929631 	 -1.831905 
H 	 -0.771762 	 5.346346 	 0.033522 
H 	 -1.497338 	 6.757381 	 -0.221169 
H 	 4.894809 	 4.752099 	 1.851601 
H 	 4.985824 	 5.347553 	 0.495125 
H 	 -4.821955 	 6.588301 	 2.884023 
H 	 -3.671436 	 5.571504 	 2.736623 
H 	 -4.220296 	 2.629409 	 -5.480564 
H 	 -4.524961 	 2.779868 	 -6.905182 
H 	 -0.519852 	 1.327095 	 6.583976 
H 	 -1.222215 	 0.119055 	 6.043541 
H 	 -5.480559 	 -1.681533 	 4.386368 
H 	 -4.279289 	 -2.369491 	 5.253690 
H 	 -0.787327 	 3.655015 	 -4.654421 
H 	 -0.139281 	 2.217259 	 -4.387812 
H 	 5.239160 	 -1.096120 	 -4.171674 
H 	 5.567804 	 -1.757666 	 -2.688356 
H 	 1.920016 	 -5.170332 	 6.256849 
H 	 1.364393 	 -4.674610 	 4.855984 
H 	 -5.013034 	 0.815290 	 -7.252824 
H 	 -5.711467 	 1.113568 	 6.372457 
H 	 -2.730982 	 -7.508994 	 1.699019 
H 	 -3.770994 	 -6.655081 	 0.878095 
H 	 3.962996 	 -2.951809 	 5.348196 
H 	 5.323611 	 -3.810741 	 5.210708 
H 	 6.428485 	 -1.453741 	 6.130955 
H 	 4.945325 	 -1.204757 	 5.757637 
H 	 -4.785043 	 4.197093 	 0.426824 
H 	 -6.323514 	 3.962003 	 -1.049969 
H 	 4.586241 	 1.190909 	 -0.198112 
H 	 5.206437 	 2.367314 	 -1.035200 
H 	 7.095338 	 -6.054775 	 -2.047616 
H 	 5.566532 	 -6.054730 	 -2.070576 
H 	 -2.073444 	 -2.286949 	 5.450659 
H 	 -2.618500 	 -1.060705 	 4.598014 
H 	 -0.885239 	 2.910546 	 0.923384 
H 	 0.295792 	 3.582395 	 1.803850 
H 	 -2.266109 	 -0.104906 	 0.458382 
H 	 -3.371549 	 -1.157563 	 0.504813 
H 	 -4.053806 	 4.659765 	 5.699508 
H 	 -4.207854 	 6.064057 	 5.187278 
H 	 -0.182840 	 -2.720633 	 -6.714795 
H 	 -1.324053 	 -3.597214 	 -6.069028 
H 	 2.961561 	 -7.131863 	 2.952308 
H 	 4.321194 	 6.945458 	 3.199628 
H 	 -2.133042 	 -4.638152 	 2.908953 
H 	 -1.698345 	 -3.604735 	 1.852075 
H 	 -2.594318 	 -6.963053 	 3.841559 
H 	 -1.980485 	 -6.010714 	 4.957775 
H 	 -3.560141 	 2.708408 	 4.425607 
H 	 -3.770349 	 2.391751 	 5.928482 
H 	 -5.930855 	 -0.951590 	 -2.690341 
H 	 -6.074514 	 -2.318183 	 -3.579022 
H 	 -2.441179 	 1.552350 	 -4.482314 
H 	 -3.504077 	 0.868540 	 -3.491750 
H 	 0.991879 	 -3.343373 	 2.650482 
H 	 -0.037828 	 -3.377393 	 3.816830 
H 	 -7.381710 	 -0.221231 	 3.992190 
H 	 -6.900383 	 -0.237384 	 2.495722 
H 	 7.094061 	 -4.778871 	 3.284071 
H 	 7.033461 	 -5.256979 	 4.734559 
H 	 -6.853370 	 2.592326 	 -3.072942 
H 	 -5.368073 	 2.257931 	 -2.995840 
H 	 -5.158652 	 -4.206067 	 -2.326360 
H 	 -5.589926 	 -5.518868 	 -3.114333 
H 	 4.563840 	 2.565101 	 -3.063526 
H 	 3.460396 	 3.665718 	 -3.116275 
H 	 3.406932 	 -3.667327 	 3.367130 
H 	 4.434119 	 -4.736292 	 3.043592 
H 	 -6.715384 	 5.784743 	 1.078913 
H 	 -6.550420 	 -7.534976 	 1.157220 
H 	 6.360016 	 -3.572735 	 -1.030898 
H 	 7.085647 	 -2.139072 	 -1.014396 
H 	 1.037072 	 -0.674285 	 7.139799 
H 	 2.391129 	 -1.102399 	 -7.234704 
H 	 6.861575 	 4.091344 	 6.904334 
H 	 5.356103 	 4.199075 	 7.379158 
H 	 -2.458554 	 -7.256437 	 -5.610237 
H 	 -2.853955 	 -6.671944 	 -4.292527 
H 	 7.134969 	 5.391611 	 -4.403548 
H 	 5.973786 	 5.583075 	 -3.458648 
H 	 7.112363 	 -7.094500 	 -4.469248 
H 	 5.784175 	 -7.227935 	 -5.007198 
H 	 -1.148375 	 3.139756 	 -1.615225 
H 	 -2.401349 	 3.848441 	 -2.227971 
H 	 -1.341445 	 5.506948 	 2.241952 
H 	 -0.725582 	 5.896786 	 3.626184 
H 	 3.237690 	 -1.345276 	 -2.503098 
H 	 2.536909 	 -1.970114 	 -1.185352 
H 	 -5.349418 	 7.344125 	 -2.803682 
H 	 -5.400639 	 6.998509 	 -4.238733 
H 	 -7.022382 	 1.647450 	 1.246664 
H 	 -5.643849 	 1.037995 	 1.282920 
H 	 2.014142 	 2.843400 	 5.489701 
H 	 0.914393 	 3.415795 	 6.542951 
H 	 6.382581 	 1.858077 	 -4.573890 
H 	 5.983079 	 1.031352 	 -3.323504 
H 	 -7.464041 	 -5.511592 	 7.177944 
H 	 7.065429 	 -5.407203 	 -6.285537 
H 	 3.649756 	 4.961984 	 -6.096974 
H 	 5.089702 	 5.364817 	 -5.726411 
H 	 1.616774 	 2.376566 	 -1.836515 
H 	 0.720479 	 1.170609 	 -1.878309 
H 	 -2.889705 	 -2.612764 	 -5.214464 
H 	 -3.218247 	 -4.270740 	 -5.284225 
H 	 -0.190564 	 0.826105 	 1.565982 
H 	 0.134711 	 1.278006 	 0.246953 
H 	 0.214697 	 -1.861680 	 0.000309 
H 	 0.474859 	 -3.352461 	 0.349866 
H 	 1.136802 	 1.772962 	 3.097824 
H 	 0.128806 	 0.971415 	 3.884652 
H 	 -4.030882 	 6.893225 	 -0.605275 
H 	 -5.167761 	 5.774046 	 -0.521748 
H 	 -1.570299 	 -0.779662 	 -1.312972 
H 	 -0.358684 	 -1.235315 	 -2.183975 
H 	 -0.824760 	 6.021871 	 -5.846305 
H 	 -0.108913 	 6.237212 	 -4.451794 
H 	 7.282853 	 7.336613 	 6.390827 
H 	 6.160315 	 -6.466119 	 6.172266 
H 	 2.905758 	 -0.386151 	 0.956939 
H 	 2.824185 	 0.048113 	 -0.445893 
H 	 -0.133380 	 6.677854 	 -2.249049 
H 	 0.285350 	 -6.938025 	 -2.721610 
H 	 -3.006279 	 -3.175474 	 -2.783356 
H 	 -3.603196 	 -2.411920 	 -1.528064 
H 	 0.135521 	 -1.425745 	 -4.437799 
H 	 -0.842057 	 -0.620436 	 -5.396345 
H 	 -3.261703 	 2.070303 	 -1.733658 
H 	 -3.610596 	 0.662164 	 -1.169440 
H 	 6.632220 	 0.576020 	 5.557622 
H 	 7.397488 	 1.965736 	 5.074087 
H 	 -6.430177 	 -0.851137 	 -6.591530 
H 	 -6.005356 	 -0.602266 	 -5.041382 
H 	 -6.825410 	 6.168677 	 -6.442828 
H 	 -6.056299 	 5.896786 	 7.177670 
H 	 -7.286007 	 -4.073482 	 -3.522622 
H 	 7.173190 	 -3.719515 	 -4.965957 
H 	 -5.917651 	 4.451545 	 -4.128905 
H 	 -5.621100 	 4.630086 	 -5.596875 
H 	 6.384988 	 0.122463 	 -1.069709 
H 	 -7.287871 	 -0.073194 	 -0.221147 
H 	 -3.231233 	 4.538638 	 0.242610 
H 	 -7.250798 	 3.518788 	 3.327384 
H 	 4.476777 	 -3.845008 	 -4.774535 
H 	 4.002178 	 -5.362987 	 -4.642885 
H 	 0.372361 	 -4.043032 	 -3.068725 
H 	 -0.827517 	 -3.626771 	 -4.065371 
H 	 -1.561918 	 3.061219 	 -7.034224 
H 	 -1.876256 	 3.045726 	 6.284056 
H 	 -5.491353 	 -5.132694 	 1.761674 
H 	 -5.520936 	 -4.935606 	 0.301896 
H 	 -6.511276 	 4.266299 	 4.561921 
O 	 2.906718 	 -5.402124 	 0.329660 
O 	 -0.164113 	 5.795391 	 5.186610 
O 	 4.673058 	 -6.249543 	 6.998520 
O 	 0.873181 	 -5.409096 	 -1.674877 
O 	 3.790247 	 -7.115050 	 -4.706508 
O 	 1.874752 	 7.110569 	 -6.731777 
O 	 6.179188 	 5.350669 	 -1.233407 
O 	 3.885327 	 0.809146 	 -6.766915 
O 	 6.067834 	 6.773305 	 3.481444 
O 	 5.107600 	 -1.545576 	 -5.867778 
O 	 -1.555589 	 -4.743724 	 -0.240766 
O 	 6.544968 	 1.600611 	 -6.135871 
O 	 -2.696181 	 -1.165957 	 -6.054960 
O 	 1.948204 	 1.424778 	 -4.698605 
O 	 -5.048260 	 -5.174983 	 3.834592 
O 	 1.815275 	 -5.075961 	 -6.550763 
O 	 -2.203267 	 6.700339 	 -7.348396 
O 	 4.431717 	 3.955348 	 4.244592 
O 	 7.246922 	 3.023077 	 1.652922 
O 	 -4.246638 	 2.195179 	 2.838822 
O 	 -7.208796 	 -3.336981 	 2.029906 
O 	 -3.204335 	 -0.501877 	 2.921644 
O 	 2.240336 	 6.505526 	 0.036764 
O 	 4.579877 	 -4.278397 	 -1.588495 
O 	 -3.180053 	 5.308787 	 -3.245148 
O 	 -4.312907 	 -4.668232 	 -7.156768 
O 	 -6.984472 	 -2.048686 	 7.086022 
O 	 -4.417064 	 -3.088808 	 1.150345 
O 	 2.871556 	 -1.704409 	 4.838274 
O 	 1.907427 	 3.620262 	 2.468013 
O 	 -1.049092 	 -5.786639 	 6.665806 
O 	 2.313207 	 4.050753 	 -5.501671 
O 	 0.863068 	 -6.664086 	 2.482694 
O 	 3.169247 	 1.261144 	 5.305966 
O 	 3.425891 	 5.740673 	 -2.639998 
O 	 -0.649262 	 6.286081 	 -0.429574 
O 	 4.342136 	 5.044418 	 1.147676 
O 	 -3.910902 	 6.407529 	 3.224458 
O 	 -4.300770 	 3.354581 	 -6.175691 
O 	 -0.328873 	 0.458591 	 6.173470 
O 	 -5.201524 	 -2.476007 	 4.937973 
O 	 -1.001220 	 2.673629 	 -4.669482 
O 	 5.192979 	 -0.967081 	 -3.162878 
O 	 1.452411 	 -5.463712 	 5.435711 
O 	 -4.780242 	 1.130642 	 6.769333 
O 	 -2.933843 	 -7.193289 	 0.742640 
O 	 4.639949 	 -3.493759 	 5.821961 
O 	 5.749020 	 -0.772131 	 6.094687 
O 	 -6.381709 	 4.337202 	 -0.140214 
O 	 5.385794 	 1.715267 	 -0.310663 
O 	 6.328457 	 -6.646262 	 -1.954686 
O 	 -2.478914 	 -1.441312 	 5.506053 
O 	 -0.389433 	 3.781013 	 1.178276 
O 	 -2.943535 	 -0.546983 	 -0.090490 
O 	 -4.403436 	 5.541100 	 5.923848 
O 	 -0.529006 	 -3.669188 	 -6.617267 
O 	 3.442907 	 7.148646 	 3.614458 
O 	 -2.230814 	 -3.694588 	 2.658768 
O 	 -2.248980 	 -6.046505 	 4.016452 
O 	 -3.314508 	 3.023205 	 5.366191 
O 	 -5.671677 	 -1.426461 	 -3.509117 
O 	 -3.179950 	 0.866040 	 -4.436011 
O 	 0.915330 	 -3.298232 	 3.634690 
O 	 -6.831308 	 -0.771119 	 3.349769 
O 	 6.531088 	 -4.765017 	 4.102907 
O 	 -5.978644 	 3.009536 	 -3.078608 
O 	 -5.901125 	 -4.600874 	 -2.840137 
O 	 3.569607 	 2.712815 	 -2.976552 
O 	 3.713174 	 -4.211259 	 2.654661 
O 	 -6.706481 	 6.552203 	 1.661427 
O 	 7.177022 	 -3.128613 	 -0.764293 
O 	 1.641726 	 -1.452408 	 7.193547 
O 	 6.020806 	 3.606816 	 6.848659 
O 	 -2.475004 	 -6.412636 	 -5.149113 
O 	 6.151993 	 5.455837 	 -4.386121 
O 	 6.644772 	 -6.841422 	 -5.294698 
O 	 -2.121672 	 3.346034 	 -1.447616 
O 	 -1.038019 	 6.247929 	 2.774921 
O 	 2.488708 	 -1.304693 	 -1.841831 
O 	 -5.292941 	 -7.132676 	 -3.664782 
O 	 -6.544640 	 0.792289 	 1.025827 
O 	 1.488858 	 3.617499 	 5.755077 
O 	 6.284976 	 1.945846 	 -3.530476 
O 	 7.390626 	 -4.823621 	 -7.032233 
O 	 4.507891 	 5.150953 	 -6.551383 
O 	 0.735451 	 2.118161 	 -1.660611 
O 	 -2.690406 	 -3.549781 	 -4.850879 
O 	 -0.697060 	 1.086264 	 0.739653 
O 	 0.640742 	 -2.454822 	 0.634854 
O 	 0.764825 	 0.854870 	 3.098695 
O 	 -4.819572 	 6.529866 	 -1.063069 
O 	 -0.600141 	 -0.662250 	 -1.438196 
O 	 -0.155032 	 5.667239 	 -5.230859 
O 	 6.957582 	 -6.915252 	 5.760056 
O 	 3.163145 	 0.361852 	 0.403052 
O 	 0.280319 	 7.008094 	 -3.050441 
O 	 -3.368090 	 -3.248257 	 -1.889978 
O 	 0.055579 	 -0.610847 	 -5.012677 
O 	 -3.878094 	 1.320418 	 -1.869056 
O 	 -7.415545 	 1.029770 	 5.461498 
O 	 -6.156353 	 -0.158665 	 -5.945234 
O 	 -6.961190 	 5.947234 	 7.506874 
O 	 6.788185 	 -3.723683 	 -4.043718 
O 	 -5.898709 	 5.154249 	 -4.804046 
O 	 7.175054 	 -0.460116 	 -0.996391 
O 	 -3.877013 	 4.249787 	 0.924484 
O 	 3.689539 	 -4.415760 	 -4.675714 
O 	 0.030738 	 -3.308444 	 -3.646490 
O 	 -1.115819 	 3.078824 	 7.004528 
O 	 -5.347589 	 -5.683380 	 0.913312 
O 	 -6.736159 	 3.381522 	 4.166091 
K 	 3.060004 	 6.085341 	 5.852956 
