333
conformation = 62
H 	 2.776568 	 -6.457751 	 0.328947 
H 	 3.032280 	 -5.111592 	 1.314551 
H 	 -0.726328 	 5.507749 	 6.124724 
H 	 0.347443 	 4.889545 	 5.295638 
H 	 4.455436 	 -6.512812 	 -7.058816 
H 	 4.536711 	 -5.325169 	 6.762784 
H 	 -0.078451 	 -5.404494 	 -1.202644 
H 	 1.372302 	 -5.661003 	 -0.944884 
H 	 3.628084 	 7.141201 	 -3.808172 
H 	 3.119788 	 -7.473773 	 -5.262589 
H 	 1.111832 	 6.593032 	 -6.168657 
H 	 1.691697 	 -6.868907 	 -6.574066 
H 	 7.003500 	 4.944874 	 -0.819397 
H 	 6.104562 	 6.172984 	 -1.213945 
H 	 3.345873 	 1.154434 	 -5.983628 
H 	 4.769983 	 0.937007 	 -6.433313 
H 	 6.808074 	 6.529786 	 2.934453 
H 	 6.512332 	 6.881552 	 4.345411 
H 	 4.679348 	 -0.805720 	 -6.302749 
H 	 5.925462 	 -1.677301 	 -6.311100 
H 	 -1.998526 	 -5.767098 	 0.087884 
H 	 -2.158643 	 -4.468276 	 -0.776067 
H 	 7.330378 	 0.993200 	 -6.308634 
H 	 6.543931 	 2.231915 	 -6.795284 
H 	 -2.975467 	 -1.182326 	 -6.900373 
H 	 -3.112411 	 -0.542596 	 -5.471089 
H 	 1.504524 	 0.579509 	 -4.543466 
H 	 2.485457 	 1.627570 	 -3.857930 
H 	 -4.232749 	 -5.465222 	 4.004353 
H 	 -5.190061 	 -4.230129 	 3.969747 
H 	 0.985825 	 -4.739825 	 -6.076796 
H 	 2.497372 	 -4.798123 	 -5.879704 
H 	 -1.675231 	 -7.617661 	 7.269953 
H 	 -3.024211 	 6.408597 	 7.206841 
H 	 5.284728 	 4.197630 	 4.752397 
H 	 4.362075 	 2.955463 	 4.531063 
H 	 -7.120536 	 3.527459 	 1.113795 
H 	 6.337212 	 2.914295 	 1.397371 
H 	 -4.970452 	 2.547939 	 3.274358 
H 	 -3.817437 	 2.744087 	 2.299508 
H 	 7.312240 	 -3.432964 	 1.224766 
H 	 7.196382 	 -2.773797 	 2.729408 
H 	 -3.535551 	 0.340679 	 3.066119 
H 	 -3.923839 	 -1.137691 	 2.698491 
H 	 2.666571 	 5.735635 	 0.636642 
H 	 1.299204 	 6.413125 	 0.200102 
H 	 4.047888 	 -4.015639 	 -2.163311 
H 	 3.949072 	 -4.736331 	 -0.772881 
H 	 -3.765486 	 4.756880 	 -3.830562 
H 	 -3.600807 	 5.584841 	 -2.515445 
H 	 -4.405657 	 -5.590655 	 -6.537076 
H 	 -5.325614 	 -4.628147 	 -7.208856 
H 	 -6.217518 	 -2.287607 	 6.456774 
H 	 -7.236176 	 -3.021180 	 7.561712 
H 	 -3.776832 	 -3.606962 	 1.778997 
H 	 -5.303319 	 -3.276698 	 1.779999 
H 	 2.030959 	 -2.143939 	 4.409237 
H 	 2.465577 	 -1.817839 	 5.809024 
H 	 2.721917 	 3.424984 	 1.958979 
H 	 2.223968 	 4.082426 	 3.218243 
H 	 -1.091550 	 -5.121589 	 7.293998 
H 	 -0.090191 	 -5.888053 	 6.302702 
H 	 1.950378 	 3.115940 	 -5.057915 
H 	 1.545971 	 4.671863 	 -5.188114 
H 	 0.896035 	 -6.742236 	 3.528960 
H 	 0.053323 	 -7.506221 	 2.545905 
H 	 2.713024 	 0.374820 	 4.968616 
H 	 3.368597 	 0.847200 	 6.216272 
H 	 4.369569 	 5.437445 	 -2.188320 
H 	 2.993239 	 6.152168 	 -1.810983 
H 	 -0.594823 	 5.415377 	 0.180178 
H 	 -1.311134 	 6.753200 	 0.091372 
H 	 4.949461 	 4.780020 	 2.016976 
H 	 4.929574 	 4.901109 	 0.417973 
H 	 -4.788352 	 6.732913 	 3.085857 
H 	 -3.803025 	 5.600671 	 2.652837 
H 	 -3.801861 	 2.576607 	 -5.638270 
H 	 -4.585570 	 2.978673 	 -7.004206 
H 	 -0.825659 	 0.863642 	 6.923204 
H 	 -1.020833 	 -0.477516 	 6.170540 
H 	 -5.479942 	 -2.048850 	 4.408088 
H 	 -4.290681 	 -2.148637 	 5.404356 
H 	 -0.842438 	 3.445350 	 -4.750681 
H 	 -0.104600 	 2.142102 	 -4.512331 
H 	 5.041720 	 -1.655714 	 -3.928495 
H 	 5.780315 	 -1.669540 	 -2.544494 
H 	 1.861646 	 -5.344293 	 6.476062 
H 	 1.687449 	 -4.640985 	 5.158906 
H 	 -5.219498 	 0.604437 	 -7.250620 
H 	 -5.670861 	 1.007956 	 6.200689 
H 	 -2.783367 	 7.070572 	 1.511095 
H 	 -3.708120 	 -6.757173 	 1.135189 
H 	 4.168443 	 -3.281383 	 5.183730 
H 	 5.526139 	 -3.931214 	 5.661143 
H 	 6.307615 	 -1.598405 	 6.491667 
H 	 4.951123 	 -1.064759 	 5.692225 
H 	 -4.768509 	 4.119814 	 0.556610 
H 	 -6.300007 	 3.692651 	 -0.827628 
H 	 4.486812 	 1.659070 	 0.188110 
H 	 5.364439 	 2.305172 	 -0.894228 
H 	 7.158647 	 -6.211761 	 -1.848908 
H 	 5.637339 	 -5.928208 	 -1.936484 
H 	 -1.756427 	 -2.244691 	 5.679822 
H 	 -2.390903 	 -1.401103 	 4.583107 
H 	 -0.671053 	 2.754174 	 1.105629 
H 	 0.426106 	 3.819935 	 1.535185 
H 	 -2.203787 	 -0.210875 	 0.606171 
H 	 -3.204658 	 -1.471923 	 0.518263 
H 	 -3.800652 	 4.603287 	 5.933111 
H 	 -4.363994 	 5.796591 	 5.101784 
H 	 -0.357688 	 -2.900939 	 -6.923950 
H 	 -1.198352 	 -3.720835 	 -5.838859 
H 	 2.821750 	 -7.403703 	 3.036722 
H 	 4.272747 	 7.161296 	 3.342331 
H 	 -2.134566 	 -4.600688 	 3.314639 
H 	 -1.816537 	 -3.977118 	 1.910552 
H 	 -1.982156 	 -6.997416 	 3.803604 
H 	 -1.899958 	 -6.030557 	 5.035805 
H 	 -3.411600 	 2.618793 	 4.580485 
H 	 -3.759261 	 2.301768 	 6.083149 
H 	 -6.135153 	 -0.981279 	 -2.652703 
H 	 -6.331682 	 -2.145897 	 -3.451216 
H 	 -2.352960 	 1.284921 	 -4.400977 
H 	 -3.483223 	 0.699974 	 -3.404578 
H 	 0.814536 	 -3.038898 	 2.865500 
H 	 -0.109229 	 -3.291708 	 3.930479 
H 	 -7.144226 	 -0.230285 	 4.200014 
H 	 -6.896753 	 -0.249632 	 2.642224 
H 	 7.021204 	 -4.555727 	 3.542488 
H 	 7.061026 	 -5.701849 	 4.685328 
H 	 -6.921670 	 2.587862 	 -2.974300 
H 	 -5.402733 	 2.186984 	 -2.533851 
H 	 -5.260126 	 -4.265805 	 -2.183554 
H 	 -5.461253 	 -5.578155 	 -2.996079 
H 	 4.412272 	 2.567437 	 -3.236077 
H 	 3.434135 	 3.715183 	 -3.081185 
H 	 3.296927 	 -3.772862 	 3.498426 
H 	 4.615408 	 -4.599108 	 3.168079 
H 	 -6.302753 	 5.753654 	 1.083544 
H 	 -6.434099 	 -7.603728 	 1.203008 
H 	 6.281051 	 -3.495308 	 -0.988224 
H 	 7.083482 	 -2.298933 	 -0.633086 
H 	 1.028155 	 -0.781075 	 6.969726 
H 	 2.207099 	 -1.303009 	 -6.896848 
H 	 6.962520 	 3.986828 	 7.036957 
H 	 5.496704 	 3.986501 	 7.582672 
H 	 -2.601722 	 -7.219750 	 -5.702572 
H 	 -3.124622 	 -6.784959 	 -4.306950 
H 	 7.057558 	 5.275997 	 -4.575426 
H 	 6.248470 	 5.384647 	 -3.256105 
H 	 7.110573 	 -6.738069 	 -4.374756 
H 	 5.689834 	 -6.947421 	 -4.920638 
H 	 -1.192854 	 3.025161 	 -1.582064 
H 	 -2.350107 	 3.886908 	 -2.175333 
H 	 -0.878751 	 5.330811 	 2.378688 
H 	 -0.985068 	 5.932463 	 3.793742 
H 	 3.334903 	 -1.415164 	 -2.042240 
H 	 2.189997 	 -2.201377 	 -1.192463 
H 	 -5.184549 	 7.051959 	 -2.810994 
H 	 -5.657725 	 7.195143 	 -4.374072 
H 	 -6.997890 	 1.537429 	 1.370396 
H 	 -5.512669 	 0.933212 	 1.336002 
H 	 2.108124 	 2.623317 	 5.680448 
H 	 0.785028 	 3.117058 	 6.237875 
H 	 6.382640 	 1.983343 	 -4.409934 
H 	 6.238049 	 0.848161 	 -3.418237 
H 	 -7.358342 	 -5.227430 	 7.023210 
H 	 6.798229 	 -5.637437 	 -6.557445 
H 	 3.891237 	 4.643469 	 -5.852099 
H 	 5.157541 	 5.527460 	 -5.878225 
H 	 1.627450 	 2.285983 	 -2.084090 
H 	 0.503051 	 1.149565 	 -1.785073 
H 	 -2.886826 	 -2.750307 	 -5.153408 
H 	 -3.197288 	 -4.219766 	 -5.080887 
H 	 -0.312250 	 0.693941 	 1.814498 
H 	 0.045232 	 1.049014 	 0.247876 
H 	 0.283618 	 -1.618347 	 0.210489 
H 	 0.450301 	 -3.153603 	 -0.001564 
H 	 1.019578 	 1.671351 	 3.181752 
H 	 0.161040 	 0.623743 	 3.971818 
H 	 -4.236644 	 6.693849 	 -0.280645 
H 	 -5.271096 	 5.571176 	 -0.751704 
H 	 -1.578047 	 -0.617866 	 -1.120120 
H 	 -0.603417 	 -1.520890 	 -1.809539 
H 	 -0.890734 	 5.807342 	 -5.651583 
H 	 -0.057942 	 6.264759 	 -4.347001 
H 	 -7.526161 	 7.178305 	 6.516522 
H 	 6.076307 	 -6.851142 	 6.148968 
H 	 2.834847 	 -0.356247 	 1.248395 
H 	 2.961104 	 -0.309722 	 -0.303587 
H 	 -0.140270 	 6.341112 	 -2.248930 
H 	 0.517850 	 -7.135056 	 -2.497411 
H 	 -3.495643 	 -3.462836 	 -2.864492 
H 	 -3.420229 	 -2.347030 	 -1.733927 
H 	 0.155625 	 -1.553117 	 -4.460628 
H 	 -0.779257 	 -0.673611 	 -5.326624 
H 	 -3.198644 	 1.863313 	 -1.537663 
H 	 -3.714723 	 0.476276 	 -1.117462 
H 	 6.635946 	 0.547671 	 5.986729 
H 	 7.216821 	 1.780059 	 5.212514 
H 	 -6.397619 	 -1.045740 	 -6.338193 
H 	 -5.973480 	 -0.515662 	 -4.929410 
H 	 -6.986490 	 6.385590 	 -6.453909 
H 	 -6.077439 	 5.687706 	 7.240777 
H 	 -7.332297 	 -4.230452 	 -3.410208 
H 	 7.032281 	 -3.737448 	 -4.774864 
H 	 -6.020662 	 4.280067 	 -3.948889 
H 	 -5.462368 	 4.436691 	 -5.334509 
H 	 6.440565 	 -0.054600 	 -0.784891 
H 	 -7.066943 	 -0.320673 	 -0.217623 
H 	 -3.292292 	 4.025685 	 0.125278 
H 	 -7.198238 	 3.324016 	 3.415780 
H 	 4.555953 	 -4.004427 	 -4.612360 
H 	 3.988772 	 -5.438947 	 -4.540193 
H 	 0.263608 	 -4.312928 	 -3.122676 
H 	 -0.855426 	 -3.642105 	 -3.793026 
H 	 -1.847213 	 3.162839 	 -7.129332 
H 	 -1.672382 	 3.082394 	 6.329965 
H 	 -5.354173 	 -5.575465 	 1.901856 
H 	 -5.254821 	 -4.972589 	 0.438929 
H 	 -6.873665 	 4.258826 	 4.536653 
O 	 2.897584 	 -5.488471 	 0.396939 
O 	 -0.108475 	 5.734768 	 5.360459 
O 	 4.692325 	 -6.297296 	 6.947132 
O 	 0.784284 	 -5.509041 	 -1.686398 
O 	 3.757975 	 -7.181497 	 -4.589698 
O 	 1.853297 	 7.042893 	 -6.647287 
O 	 6.106956 	 5.204612 	 -1.099821 
O 	 3.863762 	 0.661680 	 -6.672166 
O 	 6.027637 	 6.675648 	 3.552687 
O 	 5.077947 	 -1.588750 	 -5.822944 
O 	 -1.594907 	 -4.917676 	 -0.128902 
O 	 6.528550 	 1.509737 	 -6.087300 
O 	 -2.639220 	 -1.223674 	 -6.002881 
O 	 1.964609 	 1.445061 	 -4.682608 
O 	 -5.128818 	 -5.197133 	 3.797340 
O 	 1.778425 	 -5.090179 	 -6.483764 
O 	 -2.189920 	 6.569161 	 -7.224918 
O 	 4.472185 	 3.899551 	 4.288649 
O 	 7.202459 	 2.927607 	 1.809784 
O 	 -4.163257 	 2.107405 	 2.955955 
O 	 -7.270320 	 -3.473295 	 2.175100 
O 	 -3.219100 	 -0.595380 	 3.123594 
O 	 2.287117 	 6.431985 	 0.136263 
O 	 4.583729 	 -4.426023 	 -1.443076 
O 	 -3.128408 	 5.198307 	 -3.268545 
O 	 -4.376070 	 -4.796180 	 -7.089884 
O 	 -6.962529 	 -2.139674 	 7.145891 
O 	 -4.490108 	 -3.137779 	 1.240140 
O 	 2.810708 	 -1.846247 	 4.904236 
O 	 1.905038 	 3.553756 	 2.449852 
O 	 -0.997247 	 -5.883444 	 6.710508 
O 	 2.263078 	 3.979236 	 -5.397307 
O 	 0.748347 	 -6.800907 	 2.571832 
O 	 3.099074 	 1.188868 	 5.341091 
O 	 3.526414 	 5.692238 	 -2.551800 
O 	 -0.653223 	 6.202608 	 -0.329863 
O 	 4.338049 	 4.959625 	 1.227981 
O 	 -3.883895 	 6.389868 	 3.206522 
O 	 -4.359553 	 3.258559 	 -6.066077 
O 	 -0.387392 	 0.285589 	 6.243333 
O 	 -5.100573 	 -2.617258 	 5.098679 
O 	 -0.963663 	 2.508568 	 -4.579978 
O 	 5.163885 	 -1.166004 	 -3.072065 
O 	 1.469449 	 -5.487514 	 5.585756 
O 	 -4.928228 	 1.089421 	 6.803789 
O 	 -2.941709 	 -7.258629 	 0.768705 
O 	 4.628708 	 -3.586546 	 5.996947 
O 	 5.752425 	 -0.816914 	 6.194343 
O 	 -6.421793 	 4.259859 	 -0.043947 
O 	 5.425158 	 1.638218 	 -0.205531 
O 	 6.300496 	 -6.679019 	 -1.923443 
O 	 -2.481365 	 -1.529988 	 5.555192 
O 	 -0.539759 	 3.691326 	 1.236110 
O 	 -2.920516 	 -0.635371 	 0.009796 
O 	 -4.371509 	 5.420787 	 6.084591 
O 	 -0.482308 	 -3.771121 	 -6.574718 
O 	 3.363839 	 7.145158 	 3.707862 
O 	 -2.282204 	 -3.768375 	 2.762768 
O 	 -2.296293 	 -6.136858 	 4.104597 
O 	 -3.271217 	 2.962686 	 5.468492 
O 	 -5.639539 	 -1.458260 	 -3.349747 
O 	 -3.203016 	 0.839469 	 -4.368238 
O 	 0.843792 	 -3.443836 	 3.759155 
O 	 -6.845094 	 -0.791120 	 3.449267 
O 	 6.529802 	 -4.919610 	 4.300162 
O 	 -5.962384 	 2.882031 	 -2.964949 
O 	 -5.888929 	 -4.741628 	 -2.761742 
O 	 3.541664 	 2.756734 	 -2.806797 
O 	 3.744316 	 -4.313976 	 2.801935 
O 	 -6.611420 	 6.466345 	 1.717675 
O 	 7.207897 	 -3.258308 	 -0.696959 
O 	 1.574901 	 -1.534555 	 7.275583 
O 	 6.118583 	 3.501428 	 6.956466 
O 	 -2.570550 	 -6.451701 	 -5.040807 
O 	 6.133511 	 5.387659 	 -4.255130 
O 	 6.634510 	 -6.964474 	 -5.194404 
O 	 -2.120659 	 3.232761 	 -1.439962 
O 	 -1.085393 	 6.195244 	 2.843550 
O 	 2.402027 	 -1.374380 	 -1.737266 
O 	 -5.353686 	 -7.202114 	 -3.575673 
O 	 -6.444159 	 0.713782 	 1.142448 
O 	 1.521795 	 3.443657 	 5.716715 
O 	 6.185311 	 1.829788 	 -3.482584 
O 	 -7.488022 	 -4.955270 	 -6.927701 
O 	 4.529129 	 5.102828 	 -6.475913 
O 	 0.783853 	 2.062325 	 -1.546170 
O 	 -2.646765 	 -3.545909 	 -4.663587 
O 	 -0.640684 	 0.996519 	 0.935809 
O 	 0.562528 	 -2.456988 	 0.697266 
O 	 0.693263 	 0.750647 	 3.196619 
O 	 -4.802915 	 6.395433 	 -1.032240 
O 	 -0.620266 	 -0.638810 	 -1.346038 
O 	 -0.114180 	 5.574452 	 -5.104060 
O 	 7.070079 	 -7.042564 	 5.817262 
O 	 3.124078 	 0.252310 	 0.521178 
O 	 0.215184 	 6.969200 	 -2.955059 
O 	 -3.456855 	 -3.338231 	 -1.874424 
O 	 0.080243 	 -0.683814 	 -4.868743 
O 	 -3.878326 	 1.160385 	 -1.795124 
O 	 -7.430499 	 0.920334 	 5.531329 
O 	 -6.094042 	 -0.247532 	 -5.856226 
O 	 -6.980268 	 5.874444 	 -7.270176 
O 	 6.778203 	 -3.815664 	 -3.851217 
O 	 -5.929022 	 4.996356 	 -4.663983 
O 	 7.239395 	 -0.602264 	 -0.979359 
O 	 -3.841121 	 4.197373 	 0.916247 
O 	 3.723569 	 -4.500583 	 -4.582286 
O 	 0.021066 	 -3.444613 	 -3.471380 
O 	 -1.131225 	 2.993920 	 7.097491 
O 	 -5.331603 	 -5.773557 	 0.975208 
O 	 -6.809859 	 3.333610 	 4.332986 
K 	 3.032510 	 5.982288 	 5.961959 
