333
conformation = 68
H 	 2.843517 	 -6.429295 	 0.343829 
H 	 3.176700 	 -5.125121 	 1.223237 
H 	 -0.664651 	 5.694186 	 6.091358 
H 	 0.359403 	 4.864636 	 5.265797 
H 	 4.415645 	 -6.412015 	 -7.137554 
H 	 4.550203 	 -5.295457 	 6.680430 
H 	 -0.115495 	 -5.448230 	 -1.351581 
H 	 1.371845 	 -5.553414 	 -0.944011 
H 	 3.666374 	 7.126079 	 -3.875569 
H 	 3.067178 	 -7.330689 	 -5.291085 
H 	 1.178742 	 6.713689 	 -6.132586 
H 	 1.650434 	 -6.852629 	 -6.577716 
H 	 7.107270 	 4.996401 	 -0.893682 
H 	 6.130764 	 6.228806 	 -1.220114 
H 	 3.317549 	 1.233363 	 -6.135514 
H 	 4.839227 	 1.060646 	 -6.607825 
H 	 6.786793 	 6.512747 	 2.874228 
H 	 6.624770 	 6.828716 	 4.346044 
H 	 4.561510 	 -0.832841 	 -6.257628 
H 	 5.896694 	 -1.609798 	 -6.434327 
H 	 -1.945527 	 -5.801744 	 0.019729 
H 	 -2.213996 	 -4.538222 	 -0.830390 
H 	 7.349174 	 0.973762 	 -6.323769 
H 	 6.518602 	 2.225261 	 -6.884829 
H 	 -2.957765 	 -1.147628 	 -6.969156 
H 	 -3.078482 	 -0.478986 	 -5.491457 
H 	 1.601516 	 0.615410 	 -4.835234 
H 	 2.451366 	 1.683435 	 -3.873928 
H 	 -4.206924 	 -5.414658 	 4.015626 
H 	 -5.164059 	 -4.188917 	 3.886231 
H 	 0.954418 	 -4.689200 	 -6.173836 
H 	 2.516846 	 -4.828785 	 -5.835307 
H 	 -1.590437 	 -7.551612 	 7.245949 
H 	 -2.973475 	 6.408932 	 7.123227 
H 	 5.342398 	 4.279212 	 4.633024 
H 	 4.337998 	 3.056862 	 4.557865 
H 	 -7.109714 	 3.486118 	 1.081591 
H 	 6.351382 	 2.944673 	 1.332059 
H 	 -4.919059 	 2.598005 	 3.245366 
H 	 -3.713316 	 2.835393 	 2.258849 
H 	 7.349333 	 -3.402714 	 1.213419 
H 	 7.245622 	 -2.737023 	 2.665857 
H 	 -3.461189 	 0.377507 	 3.111969 
H 	 -3.892514 	 -0.995137 	 2.642513 
H 	 2.824108 	 5.792056 	 0.657882 
H 	 1.379259 	 6.510289 	 0.149683 
H 	 4.133457 	 -3.885346 	 -2.122173 
H 	 3.928410 	 -4.740424 	 -0.821712 
H 	 -3.819511 	 4.743817 	 -3.774345 
H 	 -3.502418 	 5.619328 	 -2.547866 
H 	 -4.297875 	 -5.551319 	 -6.525141 
H 	 -5.324202 	 -4.603987 	 -7.085746 
H 	 -6.276619 	 -2.421413 	 6.425871 
H 	 -7.131442 	 -2.949522 	 7.484140 
H 	 -3.798164 	 -3.602502 	 1.648456 
H 	 -5.223238 	 -3.231808 	 1.802808 
H 	 2.060798 	 -2.242709 	 4.378326 
H 	 2.518816 	 -1.754435 	 5.821238 
H 	 2.744804 	 3.497002 	 1.769664 
H 	 2.253195 	 4.063870 	 3.169747 
H 	 -0.991174 	 -5.053941 	 7.228721 
H 	 -0.036753 	 -5.811206 	 6.241584 
H 	 1.957108 	 3.190970 	 -5.135599 
H 	 1.588914 	 4.679514 	 -5.314174 
H 	 0.891059 	 -6.594137 	 3.491547 
H 	 0.064175 	 -7.462180 	 2.574697 
H 	 2.802062 	 0.394365 	 4.871922 
H 	 3.458872 	 1.000815 	 6.204257 
H 	 4.463741 	 5.536133 	 -2.136062 
H 	 3.108627 	 6.150934 	 -1.885019 
H 	 -0.662827 	 5.333465 	 0.131087 
H 	 -1.231747 	 6.830825 	 0.134576 
H 	 4.948501 	 4.987624 	 1.942733 
H 	 5.002071 	 4.821379 	 0.446495 
H 	 -4.730168 	 6.841455 	 2.980366 
H 	 -3.812696 	 5.677160 	 2.518659 
H 	 -3.761030 	 2.562592 	 -5.754411 
H 	 -4.573147 	 3.010509 	 -6.977562 
H 	 -0.840842 	 0.841271 	 6.836270 
H 	 -0.955501 	 -0.465945 	 6.142669 
H 	 -5.534508 	 -2.086174 	 4.371041 
H 	 -4.205825 	 -2.072485 	 5.303367 
H 	 -0.811903 	 3.498678 	 -4.832527 
H 	 0.047215 	 2.152384 	 -4.656579 
H 	 5.060247 	 -1.601526 	 -3.980434 
H 	 5.948739 	 -1.549845 	 -2.600220 
H 	 1.877064 	 -5.291015 	 6.484528 
H 	 1.790850 	 -4.600784 	 5.128847 
H 	 -5.226701 	 0.667695 	 7.513851 
H 	 -5.735302 	 1.041777 	 6.122803 
H 	 -2.764990 	 7.083828 	 1.510267 
H 	 -3.647328 	 -6.646234 	 1.070552 
H 	 4.183438 	 -3.263980 	 5.207217 
H 	 5.552617 	 -3.870185 	 5.702581 
H 	 6.288407 	 -1.510852 	 6.450534 
H 	 5.031996 	 -1.013103 	 5.630859 
H 	 -4.726192 	 4.198789 	 0.492277 
H 	 -6.211972 	 3.607162 	 -0.752302 
H 	 4.622018 	 1.757008 	 0.173863 
H 	 5.432971 	 2.341324 	 -0.988063 
H 	 7.219904 	 -6.239328 	 -1.811301 
H 	 5.728473 	 -5.857163 	 -1.859729 
H 	 -1.792811 	 -2.173129 	 5.669461 
H 	 -2.489297 	 -1.385097 	 4.496711 
H 	 -0.636263 	 2.734727 	 1.065937 
H 	 0.387922 	 3.924328 	 1.294431 
H 	 -2.251890 	 -0.202425 	 0.605739 
H 	 -3.107266 	 -1.406175 	 0.415019 
H 	 -3.811947 	 4.636022 	 5.948283 
H 	 -4.372758 	 5.737537 	 5.171036 
H 	 -0.269424 	 -2.816121 	 -6.989728 
H 	 -1.052233 	 -3.594821 	 -5.907882 
H 	 2.793485 	 -7.421027 	 2.855614 
H 	 4.291173 	 -7.555623 	 3.310022 
H 	 -2.192704 	 -4.532937 	 3.262788 
H 	 -1.793403 	 -4.042145 	 1.912774 
H 	 -1.753766 	 -6.832206 	 3.650311 
H 	 -1.841790 	 -5.976285 	 4.941594 
H 	 -3.293857 	 2.690435 	 4.476388 
H 	 -3.686534 	 2.332246 	 5.922705 
H 	 -6.028074 	 -0.777536 	 -2.706757 
H 	 -6.228946 	 -2.125488 	 -3.579256 
H 	 -2.229538 	 1.272479 	 -4.434030 
H 	 -3.452610 	 0.781795 	 -3.512155 
H 	 0.910586 	 -2.990649 	 2.810881 
H 	 -0.102681 	 -3.322258 	 3.950538 
H 	 -6.954245 	 -0.062181 	 4.151228 
H 	 -6.737181 	 -0.138200 	 2.615211 
H 	 7.042309 	 -4.389355 	 3.581476 
H 	 7.070991 	 -5.689000 	 4.440763 
H 	 -6.822534 	 2.560239 	 -3.029959 
H 	 -5.374843 	 2.295274 	 -2.458164 
H 	 -5.249022 	 -4.232255 	 -2.197117 
H 	 -5.336981 	 -5.533222 	 -3.081453 
H 	 4.418419 	 2.608759 	 -3.302924 
H 	 3.431830 	 3.757262 	 -3.119621 
H 	 3.287992 	 -3.786487 	 3.429187 
H 	 4.666298 	 -4.494011 	 3.164773 
H 	 -6.270822 	 5.799866 	 1.065912 
H 	 -6.369858 	 -7.509887 	 1.244945 
H 	 6.366402 	 -3.495527 	 -1.020695 
H 	 7.193745 	 -2.225477 	 -0.650939 
H 	 1.090149 	 -0.689356 	 6.942180 
H 	 2.072215 	 -1.236986 	 -6.856605 
H 	 6.995523 	 4.122153 	 6.989855 
H 	 5.547642 	 4.021628 	 7.490202 
H 	 -2.572495 	 -7.071766 	 -5.758370 
H 	 -3.177616 	 -6.818568 	 -4.425314 
H 	 7.071842 	 5.308542 	 -4.674766 
H 	 6.414609 	 5.366913 	 -3.353803 
H 	 7.055002 	 -6.506555 	 -4.428798 
H 	 5.745709 	 -6.942180 	 -4.922089 
H 	 -1.115548 	 3.031322 	 -1.621799 
H 	 -2.230621 	 3.968060 	 -2.189068 
H 	 -0.719331 	 5.396011 	 2.433312 
H 	 -0.953640 	 6.075456 	 3.766805 
H 	 3.373126 	 -1.327158 	 -2.058668 
H 	 2.096188 	 -2.109305 	 -1.338438 
H 	 -5.130098 	 7.091236 	 -2.963116 
H 	 -5.633070 	 7.230697 	 -4.358058 
H 	 -6.859811 	 1.593625 	 1.301921 
H 	 -5.435479 	 1.008259 	 1.271022 
H 	 2.183406 	 2.689190 	 5.568694 
H 	 0.768395 	 3.132023 	 6.123896 
H 	 6.395446 	 2.003683 	 -4.532203 
H 	 6.305394 	 0.899403 	 -3.500432 
H 	 -7.385673 	 -5.132162 	 6.967331 
H 	 6.920619 	 -5.670877 	 -6.666943 
H 	 4.075949 	 4.594341 	 -5.921991 
H 	 5.118778 	 5.642307 	 -5.813703 
H 	 1.603412 	 2.261535 	 -2.106277 
H 	 0.500406 	 1.255132 	 -1.889246 
H 	 -2.766257 	 -2.600191 	 -5.198209 
H 	 -3.058671 	 -4.262457 	 -5.067062 
H 	 -0.059128 	 0.809154 	 1.752156 
H 	 0.121451 	 0.906543 	 0.259421 
H 	 0.332141 	 -1.516959 	 0.303549 
H 	 0.458646 	 -3.013345 	 -0.072019 
H 	 1.011560 	 1.727701 	 3.198054 
H 	 0.292414 	 0.692965 	 4.072091 
H 	 -4.244843 	 6.643054 	 -0.293981 
H 	 -5.353971 	 5.660547 	 -0.889938 
H 	 -1.507094 	 -0.516454 	 -1.094546 
H 	 -0.566289 	 -1.420879 	 -1.846844 
H 	 -0.883279 	 5.766349 	 -5.646424 
H 	 -0.003174 	 6.276945 	 -4.399199 
H 	 -7.347464 	 7.206688 	 6.340413 
H 	 6.239941 	 -6.953414 	 6.028426 
H 	 2.872779 	 -0.225530 	 1.241770 
H 	 2.995344 	 -0.342991 	 -0.237067 
H 	 -0.067473 	 6.501266 	 -2.261870 
H 	 0.615051 	 -7.117812 	 -2.444479 
H 	 -3.494369 	 -3.477840 	 -2.896511 
H 	 -3.372130 	 -2.350896 	 -1.853391 
H 	 0.269283 	 -1.548241 	 -4.528497 
H 	 -0.717654 	 -0.624933 	 -5.379858 
H 	 -3.150523 	 1.852200 	 -1.604031 
H 	 -3.795107 	 0.476300 	 -1.156064 
H 	 6.782386 	 0.571999 	 5.974035 
H 	 7.226228 	 1.885166 	 5.211686 
H 	 -6.316232 	 -1.033887 	 -6.356402 
H 	 -5.807188 	 -0.394608 	 -4.947551 
H 	 -6.917417 	 6.489904 	 -6.510281 
H 	 -6.024760 	 5.784105 	 7.308755 
H 	 -7.267509 	 -4.188421 	 -3.463853 
H 	 7.075146 	 -3.758975 	 -4.808888 
H 	 -5.921365 	 4.380014 	 -3.954710 
H 	 -5.355411 	 4.491770 	 -5.326968 
H 	 6.547243 	 0.006899 	 -0.820747 
H 	 -6.944444 	 -0.224120 	 -0.391968 
H 	 -3.246441 	 3.830915 	 0.109205 
H 	 -7.200317 	 3.282069 	 3.393027 
H 	 4.678919 	 -4.032733 	 -4.674450 
H 	 3.967081 	 -5.419785 	 -4.466668 
H 	 0.421649 	 -4.282887 	 -3.172375 
H 	 -0.907143 	 -3.608157 	 -3.740031 
H 	 -1.755448 	 3.286411 	 -7.201946 
H 	 -1.668446 	 3.102542 	 6.193971 
H 	 -5.238132 	 -5.478798 	 1.920760 
H 	 -5.091974 	 -4.840605 	 0.556432 
H 	 -6.936103 	 4.367244 	 4.486457 
O 	 2.935812 	 -5.447946 	 0.337290 
O 	 -0.051298 	 5.781638 	 5.352734 
O 	 4.741993 	 -6.240461 	 6.844423 
O 	 0.787314 	 -5.471991 	 -1.760989 
O 	 3.799539 	 -7.134909 	 -4.629472 
O 	 1.899311 	 7.096818 	 -6.694885 
O 	 6.120826 	 5.237570 	 -1.135008 
O 	 3.902897 	 0.694474 	 -6.711536 
O 	 6.069828 	 6.701717 	 3.494006 
O 	 5.123385 	 -1.539642 	 -5.884229 
O 	 -1.549421 	 -4.894680 	 -0.167814 
O 	 6.571628 	 1.560592 	 -6.159428 
O 	 -2.574801 	 -1.164788 	 -6.064683 
O 	 2.018161 	 1.513974 	 -4.741824 
O 	 -5.116924 	 -5.133693 	 3.698790 
O 	 1.826171 	 -5.024522 	 -6.534184 
O 	 -2.132165 	 6.597515 	 -7.257635 
O 	 4.537692 	 3.948713 	 4.228859 
O 	 7.236840 	 2.988629 	 1.783151 
O 	 -4.087536 	 2.158845 	 2.918960 
O 	 -7.248548 	 -3.445533 	 2.148161 
O 	 -3.174718 	 -0.553370 	 3.114382 
O 	 2.344471 	 6.491068 	 0.081619 
O 	 4.633343 	 -4.393533 	 -1.477189 
O 	 -3.055413 	 5.230458 	 -3.352737 
O 	 -4.350340 	 -4.762222 	 -7.142213 
O 	 -6.910153 	 -2.102273 	 7.100661 
O 	 -4.465267 	 -3.063568 	 1.196292 
O 	 2.837837 	 -1.814441 	 4.841426 
O 	 1.964719 	 3.604165 	 2.377453 
O 	 -0.942975 	 -5.859693 	 6.634428 
O 	 2.289335 	 4.046514 	 -5.436360 
O 	 0.763906 	 -6.766356 	 2.527332 
O 	 3.120592 	 1.236577 	 5.279360 
O 	 3.598490 	 5.760710 	 -2.598394 
O 	 -0.594978 	 6.248800 	 -0.374162 
O 	 4.385447 	 4.990927 	 1.177156 
O 	 -3.841415 	 6.455354 	 3.130052 
O 	 -4.323814 	 3.304509 	 -6.115120 
O 	 -0.359560 	 0.293766 	 6.194422 
O 	 -5.021993 	 -2.578719 	 5.080436 
O 	 -0.909515 	 2.532149 	 -4.628603 
O 	 5.193014 	 -1.167244 	 -3.109148 
O 	 1.527667 	 -5.425812 	 5.569138 
O 	 -4.929652 	 1.150663 	 6.743027 
O 	 -2.904394 	 -7.203666 	 0.698759 
O 	 4.690011 	 -3.554022 	 5.981678 
O 	 5.784323 	 -0.755736 	 6.155554 
O 	 -6.387736 	 4.311742 	 -0.089095 
O 	 5.482174 	 1.695847 	 -0.237989 
O 	 6.338652 	 -6.611663 	 -1.996473 
O 	 -2.412705 	 -1.497022 	 5.500554 
O 	 -0.540394 	 3.761691 	 1.187243 
O 	 -2.868576 	 -0.597505 	 -0.019851 
O 	 -4.311902 	 5.463474 	 6.053491 
O 	 -0.439239 	 -3.731689 	 -6.633116 
O 	 3.380245 	 7.218780 	 3.662271 
O 	 -2.238453 	 -3.718107 	 2.722696 
O 	 -2.266200 	 -6.094071 	 4.076544 
O 	 -3.211045 	 3.010881 	 5.437976 
O 	 -5.607328 	 -1.394619 	 -3.358746 
O 	 -3.166981 	 0.908587 	 -4.428048 
O 	 0.847721 	 -3.397573 	 3.709244 
O 	 -6.806416 	 -0.739622 	 3.413254 
O 	 6.576164 	 -4.897686 	 4.295371 
O 	 -5.923953 	 2.911246 	 -2.989318 
O 	 -5.841499 	 -4.713112 	 -2.807272 
O 	 3.580598 	 2.848894 	 -2.825499 
O 	 3.807470 	 -4.272301 	 2.777301 
O 	 -6.519126 	 6.516055 	 1.652464 
O 	 7.253941 	 -3.234803 	 -0.739929 
O 	 1.598230 	 -1.494048 	 7.225866 
O 	 6.205771 	 3.537280 	 6.920769 
O 	 -2.566631 	 -6.389274 	 -5.081884 
O 	 6.176119 	 5.429022 	 -4.277271 
O 	 6.677498 	 -6.923055 	 -5.242512 
O 	 -2.082276 	 3.274725 	 -1.521204 
O 	 -1.063541 	 6.232054 	 2.780174 
O 	 2.428526 	 -1.329126 	 -1.772199 
O 	 -5.325458 	 -7.154849 	 -3.619853 
O 	 -6.360231 	 0.751725 	 1.108444 
O 	 1.578341 	 3.449409 	 5.627924 
O 	 6.197109 	 1.866479 	 -3.527576 
O 	 -7.428329 	 -4.912126 	 -6.977905 
O 	 4.581418 	 5.162548 	 -6.537104 
O 	 0.845625 	 2.115865 	 -1.586048 
O 	 -2.597174 	 -3.469544 	 -4.675598 
O 	 -0.598800 	 1.040571 	 0.923512 
O 	 0.583333 	 -2.378928 	 0.633690 
O 	 0.714300 	 0.780772 	 3.154682 
O 	 -4.749647 	 6.419366 	 -1.111265 
O 	 -0.571125 	 -0.570182 	 -1.405054 
O 	 -0.058970 	 5.618934 	 -5.142544 
O 	 7.142464 	 -7.017667 	 5.783857 
O 	 3.150372 	 0.288550 	 0.486541 
O 	 0.238084 	 7.020563 	 -3.000099 
O 	 -3.441969 	 -3.291663 	 -1.953375 
O 	 0.137138 	 -0.635285 	 -4.891569 
O 	 -3.832482 	 1.183522 	 -1.844091 
O 	 -7.385161 	 0.960991 	 5.480987 
O 	 -6.031356 	 -0.201841 	 -5.910568 
O 	 -6.941714 	 5.925050 	 -7.319530 
O 	 6.812214 	 -3.760227 	 -3.863172 
O 	 -5.896524 	 5.010994 	 -4.687239 
O 	 7.310571 	 -0.570741 	 -1.043891 
O 	 -3.780814 	 4.250572 	 0.844099 
O 	 3.781751 	 -4.443060 	 -4.625583 
O 	 0.057861 	 -3.408907 	 -3.485150 
O 	 -1.088430 	 3.040708 	 7.062166 
O 	 -5.282582 	 -5.759813 	 0.916037 
O 	 -6.785397 	 3.396597 	 4.304645 
K 	 3.068793 	 6.021581 	 5.928887 
