333
conformation = 3
H 	 -5.294686 	 6.519289 	 -5.979322 
H 	 -4.557834 	 -7.030084 	 -5.306442 
H 	 6.291041 	 3.926800 	 -0.611656 
H 	 7.132702 	 2.754498 	 -1.104631 
H 	 -2.853184 	 6.733167 	 1.659952 
H 	 -3.152200 	 7.421124 	 0.329780 
H 	 -7.635746 	 -7.365291 	 -7.542297 
H 	 -6.126263 	 -7.267799 	 -7.293817 
H 	 -4.075546 	 5.044045 	 4.449400 
H 	 -4.525693 	 5.454192 	 2.986720 
H 	 -6.544964 	 4.704860 	 2.351726 
H 	 -6.048369 	 6.001680 	 1.734901 
H 	 -0.622890 	 2.967970 	 7.297340 
H 	 -1.264917 	 4.424883 	 7.025303 
H 	 -4.525642 	 -0.925620 	 2.355620 
H 	 -3.016980 	 -0.875882 	 1.884424 
H 	 -0.851327 	 4.744559 	 -3.641952 
H 	 -1.286124 	 5.372566 	 -2.383360 
H 	 -2.987797 	 -3.098155 	 2.019295 
H 	 -1.718694 	 -3.977466 	 2.302875 
H 	 5.269016 	 7.507097 	 -6.294000 
H 	 4.947943 	 -6.244941 	 -7.244973 
H 	 -0.543462 	 -1.183797 	 2.305850 
H 	 -1.062158 	 0.185516 	 1.596813 
H 	 4.242689 	 -3.051978 	 1.508438 
H 	 3.993407 	 -2.433156 	 3.017848 
H 	 -6.389156 	 -1.578675 	 3.761425 
H 	 -5.369941 	 -0.639418 	 4.687722 
H 	 3.137055 	 7.478462 	 -2.197237 
H 	 1.883508 	 -6.461673 	 -2.126073 
H 	 -6.772896 	 -6.897862 	 1.942222 
H 	 -5.425096 	 -6.852886 	 2.660313 
H 	 5.270944 	 5.547373 	 0.637352 
H 	 4.221358 	 4.284888 	 0.588687 
H 	 -2.656989 	 1.708573 	 -1.457996 
H 	 -3.968783 	 1.079715 	 -2.049013 
H 	 0.043469 	 1.594162 	 -5.593057 
H 	 -1.339647 	 0.926210 	 -5.462010 
H 	 1.903112 	 0.495569 	 -3.267887 
H 	 2.980789 	 0.935168 	 -4.342290 
H 	 -0.413563 	 -5.170358 	 -5.446538 
H 	 -0.090535 	 -4.513511 	 -4.017495 
H 	 3.286352 	 -1.810010 	 -3.676136 
H 	 3.439560 	 -3.337764 	 -3.911694 
H 	 -5.079567 	 4.097235 	 -5.785553 
H 	 -6.556141 	 4.482604 	 -6.374881 
H 	 -3.604942 	 -6.414677 	 5.855085 
H 	 -3.805493 	 -6.751228 	 7.339130 
H 	 3.693301 	 3.597248 	 4.478575 
H 	 3.183288 	 3.671542 	 5.954206 
H 	 3.164643 	 7.267138 	 1.395208 
H 	 1.976318 	 -6.749496 	 1.175042 
H 	 0.767907 	 -4.348832 	 -0.108716 
H 	 -0.095238 	 -5.099292 	 0.924237 
H 	 3.306686 	 -5.560465 	 -4.674946 
H 	 1.881979 	 -5.172453 	 -5.085303 
H 	 -5.409047 	 -3.904833 	 -2.336070 
H 	 -5.475918 	 -3.511303 	 -0.826602 
H 	 -5.215579 	 1.712427 	 -4.551909 
H 	 -5.499601 	 2.179056 	 -3.111162 
H 	 6.016535 	 -6.979203 	 0.634280 
H 	 6.881611 	 6.789341 	 -0.097828 
H 	 -5.592747 	 1.038485 	 2.789270 
H 	 -6.339559 	 2.479593 	 2.778701 
H 	 -7.000442 	 6.526882 	 -3.071497 
H 	 -7.300972 	 5.587419 	 -4.179353 
H 	 -4.420094 	 -1.609395 	 -1.414252 
H 	 -4.136512 	 -0.809321 	 -0.197902 
H 	 -3.748233 	 3.587040 	 6.557161 
H 	 -5.246870 	 3.964883 	 6.367850 
H 	 6.349992 	 3.306133 	 -6.683355 
H 	 5.740132 	 4.620994 	 -6.477274 
H 	 -3.019338 	 3.138244 	 -4.364567 
H 	 -2.639821 	 3.162043 	 -5.882246 
H 	 2.288415 	 4.231712 	 -3.645895 
H 	 3.785119 	 3.754100 	 -3.527431 
H 	 2.518767 	 0.915844 	 3.086033 
H 	 2.631288 	 0.562336 	 1.564026 
H 	 6.715345 	 -0.430268 	 -0.121783 
H 	 6.018790 	 -1.768273 	 -0.246304 
H 	 1.328010 	 -3.951211 	 -2.345118 
H 	 2.597208 	 -3.951640 	 -1.286786 
H 	 6.213648 	 1.750651 	 3.828567 
H 	 6.934631 	 0.408046 	 4.039368 
H 	 -2.762134 	 -2.744006 	 4.336926 
H 	 -2.106935 	 -3.650839 	 5.370186 
H 	 -5.897739 	 -7.245174 	 -0.332803 
H 	 -6.415114 	 -6.835754 	 -1.700694 
H 	 2.459217 	 -1.615338 	 1.220758 
H 	 1.600421 	 -1.098765 	 0.061151 
H 	 4.447191 	 5.473178 	 -4.735154 
H 	 3.368312 	 6.247660 	 -5.398628 
H 	 -3.928038 	 -5.134688 	 -0.841490 
H 	 -2.575353 	 -5.792764 	 -1.572090 
H 	 -1.414395 	 -3.351492 	 0.118950 
H 	 -2.620337 	 -3.446966 	 -0.927642 
H 	 2.300222 	 2.227610 	 -5.851382 
H 	 1.019677 	 1.713078 	 -7.368880 
H 	 -2.958002 	 -0.903946 	 -6.225768 
H 	 -3.125422 	 0.179266 	 -7.195062 
H 	 -0.604896 	 6.740588 	 6.431752 
H 	 -2.059850 	 6.637478 	 6.993833 
H 	 5.180678 	 -4.147603 	 -1.415650 
H 	 4.523971 	 -2.853500 	 -1.641201 
H 	 6.437234 	 0.979223 	 -5.354785 
H 	 -7.191838 	 1.763289 	 -4.802858 
H 	 4.797605 	 -2.116135 	 -6.046157 
H 	 3.746593 	 -3.130119 	 -5.784633 
H 	 2.973432 	 2.639868 	 -0.571669 
H 	 2.636073 	 3.782238 	 -1.618902 
H 	 7.110725 	 -4.867088 	 1.991603 
H 	 5.858394 	 -5.654024 	 2.573071 
H 	 -4.767753 	 5.499675 	 -3.543163 
H 	 -3.283451 	 5.127769 	 -3.230463 
H 	 5.139739 	 -6.681364 	 -3.585030 
H 	 5.338726 	 -5.619628 	 -4.751927 
H 	 4.651741 	 5.817725 	 -2.354582 
H 	 5.245837 	 6.986496 	 -1.512946 
H 	 3.784310 	 0.782115 	 -2.068104 
H 	 3.272280 	 0.093975 	 -0.762378 
H 	 0.715298 	 -3.206414 	 5.435838 
H 	 1.328519 	 -4.518550 	 4.952163 
H 	 4.659909 	 -0.497998 	 3.860168 
H 	 3.756155 	 -1.228835 	 4.961757 
H 	 -6.458939 	 -5.608722 	 -3.767665 
H 	 7.152407 	 -5.164827 	 -3.248051 
H 	 0.146802 	 -2.351741 	 -2.414348 
H 	 0.554197 	 -2.354988 	 -3.932350 
H 	 -0.770337 	 -6.039029 	 -3.050548 
H 	 -0.580581 	 -7.288370 	 -2.133859 
H 	 0.312471 	 0.466642 	 5.108373 
H 	 1.751007 	 0.473968 	 5.863439 
H 	 2.152738 	 -6.210341 	 5.870398 
H 	 1.510238 	 -7.049045 	 4.842259 
H 	 -3.207483 	 0.439300 	 5.025859 
H 	 -4.378801 	 1.380570 	 5.102802 
H 	 -4.417423 	 -5.793704 	 -3.022282 
H 	 -3.441089 	 -6.884556 	 -3.524667 
H 	 0.146616 	 3.875018 	 -5.471378 
H 	 0.690701 	 5.380510 	 -5.151455 
H 	 -1.504387 	 -5.502403 	 -7.508746 
H 	 -0.817487 	 -4.189249 	 -7.167981 
H 	 -6.793363 	 -2.868036 	 0.668401 
H 	 -5.387667 	 -3.059735 	 1.454423 
H 	 -1.150500 	 2.334003 	 0.268042 
H 	 -2.476204 	 1.969412 	 1.032526 
H 	 4.695729 	 5.607318 	 2.668169 
H 	 4.458826 	 5.966741 	 4.145974 
H 	 -0.676655 	 3.027632 	 3.890938 
H 	 -1.685822 	 3.272367 	 5.052113 
H 	 -0.481082 	 5.740829 	 3.858227 
H 	 -1.784087 	 5.383873 	 3.215227 
H 	 5.888939 	 1.004827 	 7.000757 
H 	 4.965824 	 2.088754 	 6.386364 
H 	 6.585833 	 3.338240 	 -4.143969 
H 	 6.310729 	 4.066574 	 -2.776642 
H 	 -4.369306 	 -3.000093 	 6.042832 
H 	 -4.964379 	 -4.241046 	 6.976657 
H 	 1.991018 	 5.525884 	 5.814824 
H 	 1.758962 	 4.754855 	 4.395053 
H 	 0.195573 	 -0.427996 	 -5.109307 
H 	 1.441508 	 -1.096240 	 -5.750106 
H 	 -5.822532 	 0.857542 	 -0.737218 
H 	 -6.836885 	 1.511358 	 0.257757 
H 	 -1.351454 	 -0.184249 	 4.021712 
H 	 -1.385539 	 -1.016376 	 5.292794 
H 	 -0.667711 	 7.424217 	 0.776736 
H 	 -0.101889 	 7.495515 	 2.124591 
H 	 -4.148716 	 2.618702 	 2.177454 
H 	 -2.818445 	 3.048131 	 2.711043 
H 	 -6.233821 	 0.197061 	 7.211566 
H 	 -7.072608 	 -0.961235 	 6.484280 
H 	 4.110726 	 -4.863303 	 3.047286 
H 	 3.966511 	 -6.473695 	 3.103495 
H 	 7.023361 	 -1.102690 	 -5.135392 
H 	 6.825204 	 -0.917943 	 -6.650042 
H 	 -7.384460 	 -4.092802 	 -6.485221 
H 	 -7.455628 	 -5.551024 	 -5.899143 
H 	 -6.196640 	 -0.453892 	 -3.358838 
H 	 -7.047400 	 -1.212711 	 -2.389561 
H 	 2.963156 	 4.508648 	 -6.761990 
H 	 1.643289 	 3.876582 	 -7.301591 
H 	 5.734338 	 -3.145337 	 7.005760 
H 	 6.855244 	 -3.317365 	 5.997254 
H 	 6.160600 	 3.842900 	 2.536422 
H 	 6.897433 	 4.114812 	 3.934096 
H 	 -0.451316 	 5.220859 	 -0.366217 
H 	 -1.822649 	 5.972298 	 -0.166067 
H 	 -4.515043 	 -2.326186 	 -5.418314 
H 	 -4.862775 	 -2.314886 	 -6.914003 
H 	 7.135523 	 4.845562 	 6.358133 
H 	 -7.019832 	 5.790443 	 5.488248 
H 	 4.315873 	 -5.043380 	 5.793238 
H 	 3.557534 	 -4.581716 	 7.233033 
H 	 -7.540490 	 -3.630857 	 3.675669 
H 	 6.248118 	 -2.722703 	 3.041016 
H 	 3.918302 	 0.046279 	 6.893199 
H 	 3.303643 	 -1.337343 	 7.194553 
H 	 -1.018228 	 -1.275445 	 -0.569943 
H 	 -0.259215 	 -0.068159 	 -1.281743 
H 	 0.661731 	 -2.980690 	 1.880270 
H 	 1.124644 	 -2.541904 	 3.305216 
H 	 0.147052 	 4.092497 	 1.856047 
H 	 1.227957 	 3.761950 	 0.705204 
H 	 -0.342516 	 -5.926754 	 4.831052 
H 	 -0.549832 	 -5.816703 	 3.375927 
H 	 1.299200 	 2.447291 	 4.256062 
H 	 1.864255 	 2.793873 	 2.899037 
H 	 -1.336223 	 -1.837213 	 7.157005 
H 	 -0.229397 	 -1.881589 	 -6.680580 
H 	 3.748438 	 1.672021 	 -5.959064 
H 	 0.009152 	 1.492898 	 -3.249756 
H 	 -3.198357 	 -6.112134 	 3.516942 
H 	 -3.956939 	 7.499342 	 3.862242 
H 	 -7.113163 	 -5.503865 	 5.390947 
H 	 6.726099 	 -6.080796 	 4.533638 
H 	 6.000121 	 0.788832 	 1.539685 
H 	 5.168411 	 1.111538 	 0.305817 
H 	 1.708893 	 7.525708 	 -4.632729 
H 	 1.545514 	 -7.107779 	 -6.141765 
H 	 0.913486 	 2.144280 	 -2.092206 
O 	 -4.823136 	 7.371846 	 -6.130301 
O 	 6.959833 	 3.666499 	 -1.322352 
O 	 -3.200170 	 6.555781 	 0.793568 
O 	 -6.766321 	 7.520694 	 6.882926 
O 	 -3.860265 	 5.624485 	 3.693530 
O 	 -5.857082 	 5.025174 	 1.726746 
O 	 -1.496206 	 3.478295 	 7.172525 
O 	 -3.896838 	 -1.173999 	 1.653816 
O 	 -1.636654 	 4.739966 	 -2.992448 
O 	 -2.559336 	 -3.708793 	 2.670388 
O 	 5.681214 	 -6.606646 	 -6.689228 
O 	 -1.200661 	 -0.408370 	 2.353726 
O 	 4.373239 	 -3.206978 	 2.435334 
O 	 -5.796925 	 -0.805599 	 3.834938 
O 	 2.215342 	 -7.335550 	 -2.453633 
O 	 -5.868309 	 -7.193954 	 1.844634 
O 	 4.948468 	 4.694405 	 1.033837 
O 	 -3.354044 	 1.822502 	 -2.148965 
O 	 -0.526598 	 1.032662 	 -4.967585 
O 	 2.710620 	 0.129340 	 -3.690668 
O 	 0.098721 	 -5.270643 	 -4.610968 
O 	 3.966560 	 -2.565858 	 -3.685249 
O 	 -5.568298 	 4.470915 	 -6.484104 
O 	 -3.206711 	 -6.269779 	 6.748356 
O 	 3.878377 	 3.283984 	 5.377481 
O 	 2.935421 	 -6.666962 	 1.284419 
O 	 0.175527 	 -4.170363 	 0.656858 
O 	 2.806388 	 -4.972331 	 -5.302795 
O 	 -4.828735 	 -3.590855 	 -1.619770 
O 	 -5.744166 	 1.511808 	 -3.761446 
O 	 5.984239 	 7.043811 	 0.176407 
O 	 -5.451512 	 1.995621 	 2.907368 
O 	 -6.655237 	 6.306313 	 -3.958037 
O 	 -4.517802 	 -0.702201 	 -1.074375 
O 	 -4.436224 	 3.591494 	 5.874891 
O 	 6.496433 	 4.189036 	 -6.917832 
O 	 -3.412752 	 2.937745 	 -5.276802 
O 	 3.083078 	 4.246302 	 -3.087807 
O 	 2.932727 	 1.247819 	 2.248584 
O 	 6.942615 	 -1.409286 	 -0.283573 
O 	 1.784963 	 -4.424729 	 -1.591989 
O 	 6.100926 	 0.804739 	 3.745061 
O 	 -2.552068 	 -2.821477 	 5.250663 
O 	 -6.342686 	 7.271891 	 -1.112750 
O 	 2.505574 	 -0.980040 	 0.434049 
O 	 4.193176 	 5.728107 	 -5.620570 
O 	 -3.088612 	 -5.607855 	 -0.741852 
O 	 -2.092493 	 -2.854909 	 -0.400665 
O 	 0.841837 	 2.308707 	 -6.622307 
O 	 -2.393240 	 -0.332941 	 -6.832186 
O 	 -1.343450 	 6.115102 	 6.554378 
O 	 4.604450 	 -3.509324 	 -0.887592 
O 	 6.810791 	 1.837538 	 -5.271239 
O 	 4.108378 	 -2.603911 	 -6.554728 
O 	 2.667334 	 3.586863 	 -0.591479 
O 	 6.525513 	 -5.588773 	 1.854926 
O 	 -4.235529 	 4.984965 	 -2.950824 
O 	 5.103184 	 -5.716076 	 -3.794139 
O 	 4.892482 	 6.749731 	 -2.392162 
O 	 3.729081 	 0.917735 	 -1.114863 
O 	 1.445973 	 -3.555369 	 4.869415 
O 	 3.994849 	 -1.178435 	 4.020661 
O 	 -6.805224 	 -5.286977 	 -2.925165 
O 	 0.331794 	 -2.920285 	 -3.159506 
O 	 -1.262327 	 -6.702969 	 -2.558285 
O 	 1.115333 	 1.034844 	 5.341214 
O 	 1.281052 	 -6.609230 	 5.658618 
O 	 -4.097457 	 0.482091 	 5.425453 
O 	 -4.073458 	 -6.216483 	 -3.865995 
O 	 0.326928 	 4.543363 	 -4.755384 
O 	 -0.631545 	 -5.160935 	 -7.166587 
O 	 -6.026699 	 -3.493668 	 0.787018 
O 	 -1.824464 	 1.607518 	 0.325306 
O 	 4.795918 	 6.377862 	 3.290936 
O 	 -1.583608 	 3.353345 	 4.059654 
O 	 -1.069209 	 6.058693 	 3.143262 
O 	 5.033144 	 1.393895 	 7.107657 
O 	 6.081653 	 4.123748 	 -3.783546 
O 	 -5.118684 	 -3.343517 	 6.531583 
O 	 1.931946 	 5.657435 	 4.815511 
O 	 0.558522 	 -1.310227 	 -5.371625 
O 	 -6.268638 	 1.710621 	 -0.502714 
O 	 -1.370520 	 -0.069048 	 5.037111 
O 	 -0.322094 	 -6.789068 	 1.390226 
O 	 -3.308143 	 3.091178 	 1.899208 
O 	 -7.095727 	 -0.001013 	 6.719251 
O 	 4.383494 	 -5.693797 	 3.486327 
O 	 6.322232 	 -0.975095 	 -5.806048 
O 	 -6.977603 	 -4.691480 	 -5.790144 
O 	 -6.893033 	 -1.131717 	 -3.322132 
O 	 2.317624 	 4.564469 	 -7.514871 
O 	 6.699365 	 -2.960736 	 6.889315 
O 	 6.893905 	 3.572144 	 3.123274 
O 	 -0.974243 	 6.066609 	 -0.519769 
O 	 -4.640368 	 -1.666144 	 -6.125258 
O 	 -7.397463 	 4.901163 	 5.420305 
O 	 3.915520 	 -5.322195 	 6.654731 
O 	 7.163492 	 -2.733927 	 3.400105 
O 	 3.228150 	 -0.603065 	 6.568757 
O 	 -0.165470 	 -0.966791 	 -0.991561 
O 	 0.886242 	 -2.175761 	 2.442608 
O 	 0.245100 	 3.875989 	 0.908362 
O 	 -0.990389 	 -5.680937 	 4.198985 
O 	 1.310585 	 3.203204 	 3.592991 
O 	 -0.657769 	 -2.434222 	 -7.431481 
O 	 3.200811 	 2.168238 	 -5.309523 
O 	 -4.092389 	 -6.415943 	 3.808808 
O 	 7.159881 	 -5.228357 	 4.707684 
O 	 6.082742 	 1.038489 	 0.584716 
O 	 1.714032 	 7.070479 	 -5.482848 
O 	 0.560164 	 1.303238 	 -2.426388 
K 	 -4.645318 	 4.086996 	 -0.582534 
