333
conformation = 71
H 	 2.859781 	 -6.434827 	 0.389640 
H 	 3.204984 	 -5.153555 	 1.234030 
H 	 -0.680508 	 5.741202 	 6.124678 
H 	 0.351183 	 4.863484 	 5.265066 
H 	 4.402163 	 -6.383925 	 -7.178992 
H 	 4.528437 	 -5.275308 	 6.662979 
H 	 -0.123388 	 -5.464842 	 -1.388942 
H 	 1.347714 	 -5.516358 	 -0.965276 
H 	 3.671275 	 7.102104 	 -3.888481 
H 	 3.057032 	 -7.312034 	 -5.271040 
H 	 1.213493 	 6.723373 	 -6.134434 
H 	 1.634956 	 -6.839648 	 -6.585520 
H 	 7.088813 	 5.001357 	 -0.895450 
H 	 6.135209 	 6.226229 	 -1.200107 
H 	 3.289128 	 1.242928 	 -6.155362 
H 	 4.829578 	 1.076447 	 -6.646603 
H 	 6.761481 	 6.499050 	 2.837729 
H 	 6.604118 	 6.818242 	 4.334818 
H 	 4.510284 	 -0.849870 	 -6.233589 
H 	 5.879085 	 -1.598705 	 -6.466431 
H 	 -1.934240 	 -5.811218 	 0.023517 
H 	 -2.226353 	 -4.567569 	 -0.813734 
H 	 7.337528 	 0.955901 	 -6.299911 
H 	 6.504429 	 2.238117 	 -6.921572 
H 	 -2.962716 	 -1.145998 	 -6.944508 
H 	 -3.061982 	 -0.476483 	 -5.502149 
H 	 1.608536 	 0.609907 	 -4.888539 
H 	 2.440564 	 1.675622 	 -3.856645 
H 	 -4.234514 	 -5.402656 	 4.026328 
H 	 -5.159467 	 -4.188223 	 3.894351 
H 	 0.964312 	 -4.682541 	 -6.215774 
H 	 2.503355 	 -4.840161 	 -5.822767 
H 	 -1.612814 	 -7.542351 	 7.243738 
H 	 -2.967193 	 6.408392 	 7.089652 
H 	 5.347389 	 4.266902 	 4.617710 
H 	 4.336886 	 3.083017 	 4.587268 
H 	 -7.125884 	 3.474973 	 1.078007 
H 	 6.386789 	 2.927348 	 1.350685 
H 	 -4.913632 	 2.590523 	 3.248744 
H 	 -3.723594 	 2.816873 	 2.283287 
H 	 7.332700 	 -3.400234 	 1.200155 
H 	 7.240784 	 -2.692987 	 2.646483 
H 	 -3.449359 	 0.368442 	 3.145297 
H 	 -3.871615 	 -0.959940 	 2.654802 
H 	 2.809871 	 5.854764 	 0.643396 
H 	 1.376401 	 6.504747 	 0.161565 
H 	 4.149842 	 -3.864573 	 -2.111475 
H 	 3.926936 	 -4.755171 	 -0.827162 
H 	 -3.827152 	 4.748050 	 -3.732867 
H 	 -3.471409 	 5.606502 	 -2.576893 
H 	 -4.256751 	 -5.555611 	 -6.509152 
H 	 -5.323638 	 -4.605169 	 -7.042865 
H 	 -6.294211 	 -2.457728 	 6.412984 
H 	 -7.129904 	 -2.970423 	 7.495246 
H 	 -3.788081 	 -3.606202 	 1.631006 
H 	 -5.239384 	 -3.209096 	 1.809993 
H 	 2.059736 	 -2.276604 	 4.394274 
H 	 2.533854 	 -1.756786 	 5.795131 
H 	 2.730400 	 3.521858 	 1.752670 
H 	 2.266401 	 4.046701 	 3.166435 
H 	 -0.959599 	 -5.082530 	 7.192092 
H 	 -0.011767 	 -5.785933 	 6.229409 
H 	 1.942226 	 3.205131 	 -5.155818 
H 	 1.537531 	 4.704481 	 -5.331586 
H 	 0.886629 	 -6.546920 	 3.481809 
H 	 0.061916 	 -7.468181 	 2.578325 
H 	 2.821212 	 0.395930 	 4.856723 
H 	 3.475375 	 1.029995 	 6.222207 
H 	 4.462314 	 5.553936 	 -2.122431 
H 	 3.097725 	 6.145071 	 -1.855403 
H 	 -0.702370 	 5.315938 	 0.100651 
H 	 -1.217251 	 6.838505 	 0.146013 
H 	 4.943039 	 5.044228 	 1.980877 
H 	 5.013069 	 4.798444 	 0.449799 
H 	 -4.718901 	 6.842922 	 2.948946 
H 	 -3.840011 	 5.704681 	 2.503266 
H 	 -3.768079 	 2.525464 	 -5.757460 
H 	 -4.599061 	 2.980554 	 -6.984562 
H 	 -0.850407 	 0.855429 	 6.826709 
H 	 -0.961479 	 -0.472485 	 6.126339 
H 	 -5.535601 	 -2.106624 	 4.409777 
H 	 -4.184830 	 -2.054639 	 5.278981 
H 	 -0.810784 	 3.468540 	 -4.830309 
H 	 0.045842 	 2.163463 	 -4.685786 
H 	 5.077977 	 -1.616124 	 -4.010242 
H 	 5.964365 	 -1.534457 	 -2.644334 
H 	 1.862229 	 -5.296606 	 6.494187 
H 	 1.793293 	 -4.610972 	 5.119408 
H 	 -5.240808 	 0.667588 	 7.514428 
H 	 -5.742496 	 1.051100 	 6.145863 
H 	 -2.760148 	 7.092959 	 1.498070 
H 	 -3.649379 	 -6.611338 	 1.029379 
H 	 4.169129 	 -3.258242 	 5.213945 
H 	 5.591969 	 -3.881435 	 5.684492 
H 	 6.280388 	 -1.537254 	 6.439357 
H 	 5.046430 	 -1.035901 	 5.628850 
H 	 -4.743990 	 4.214147 	 0.490562 
H 	 -6.203289 	 3.583929 	 -0.707791 
H 	 4.594342 	 1.748689 	 0.199930 
H 	 5.442518 	 2.316892 	 -0.991697 
H 	 7.221610 	 -6.259747 	 -1.786776 
H 	 5.731700 	 -5.835214 	 -1.820825 
H 	 -1.797621 	 -2.220958 	 5.685866 
H 	 -2.542001 	 -1.376396 	 4.502533 
H 	 -0.631379 	 2.729522 	 1.065541 
H 	 0.385418 	 3.917732 	 1.243905 
H 	 -2.248483 	 -0.177240 	 0.645495 
H 	 -3.120316 	 -1.444072 	 0.410684 
H 	 -3.840379 	 4.620536 	 5.970658 
H 	 -4.391947 	 5.741431 	 5.146577 
H 	 -0.244114 	 -2.844135 	 -6.974780 
H 	 -1.066484 	 -3.562902 	 -5.869531 
H 	 2.791635 	 -7.455728 	 2.870696 
H 	 4.286438 	 -7.524146 	 3.326867 
H 	 -2.231084 	 -4.541615 	 3.267606 
H 	 -1.785949 	 -4.068022 	 1.910290 
H 	 -1.722839 	 -6.775927 	 3.616734 
H 	 -1.826119 	 -5.967203 	 4.967509 
H 	 -3.273991 	 2.707760 	 4.471185 
H 	 -3.698348 	 2.300747 	 5.903610 
H 	 -6.021169 	 -0.746389 	 -2.708762 
H 	 -6.214765 	 -2.128000 	 -3.587032 
H 	 -2.246244 	 1.251874 	 -4.409542 
H 	 -3.452450 	 0.806000 	 -3.495496 
H 	 0.920942 	 -3.011301 	 2.816717 
H 	 -0.122115 	 -3.352563 	 3.965609 
H 	 -6.923966 	 -0.030481 	 4.160682 
H 	 -6.696325 	 -0.138729 	 2.618907 
H 	 7.036192 	 -4.382251 	 3.610068 
H 	 7.076892 	 -5.712725 	 4.375278 
H 	 -6.811552 	 2.522196 	 -3.032215 
H 	 -5.372805 	 2.300277 	 -2.423644 
H 	 -5.270560 	 -4.222449 	 -2.181478 
H 	 -5.338398 	 -5.529696 	 -3.098168 
H 	 4.421369 	 2.584298 	 -3.298346 
H 	 3.397490 	 3.776103 	 -3.111738 
H 	 3.260494 	 -3.790360 	 3.446659 
H 	 4.666420 	 -4.478777 	 3.190400 
H 	 -6.277855 	 5.792618 	 1.045538 
H 	 -6.357827 	 -7.485860 	 1.247126 
H 	 6.377226 	 -3.525635 	 -1.014775 
H 	 7.223651 	 -2.230147 	 -0.656239 
H 	 1.111238 	 -0.688919 	 6.971821 
H 	 2.029807 	 -1.216912 	 -6.810516 
H 	 6.997151 	 4.158921 	 6.994737 
H 	 5.540386 	 4.042616 	 7.483279 
H 	 -2.560113 	 -7.062795 	 -5.800783 
H 	 -3.208948 	 -6.833880 	 -4.431003 
H 	 7.069233 	 5.304306 	 -4.705558 
H 	 6.436823 	 5.348916 	 -3.333175 
H 	 7.029790 	 -6.460243 	 -4.450795 
H 	 5.755380 	 -6.980901 	 -4.929307 
H 	 -1.155955 	 3.032449 	 -1.608813 
H 	 -2.215713 	 3.987088 	 -2.198820 
H 	 -0.699425 	 5.408046 	 2.455861 
H 	 -0.954939 	 6.114910 	 3.730213 
H 	 3.378089 	 -1.351232 	 -2.054169 
H 	 2.069240 	 -2.154288 	 -1.348534 
H 	 -5.125409 	 7.081191 	 -2.973816 
H 	 -5.643570 	 7.207688 	 -4.347906 
H 	 -6.836051 	 1.587052 	 1.292538 
H 	 -5.419846 	 1.018217 	 1.263946 
H 	 2.191225 	 2.677314 	 5.537705 
H 	 0.774059 	 3.124117 	 6.107475 
H 	 6.378927 	 1.996325 	 -4.539105 
H 	 6.291287 	 0.906235 	 -3.496381 
H 	 -7.403630 	 -5.123814 	 6.929968 
H 	 6.949704 	 -5.691147 	 -6.656020 
H 	 4.084597 	 4.564595 	 -5.948346 
H 	 5.103263 	 5.667581 	 -5.793900 
H 	 1.638126 	 2.253051 	 -2.124125 
H 	 0.490072 	 1.269937 	 -1.911596 
H 	 -2.751509 	 -2.596404 	 -5.198519 
H 	 -3.019382 	 -4.267735 	 -5.059085 
H 	 -0.017353 	 0.839389 	 1.744638 
H 	 0.120086 	 0.856256 	 0.269320 
H 	 0.321684 	 -1.491249 	 0.326527 
H 	 0.434301 	 -3.000102 	 -0.093708 
H 	 1.005728 	 1.729692 	 3.206271 
H 	 0.338182 	 0.699166 	 4.069089 
H 	 -4.242335 	 6.620679 	 -0.274387 
H 	 -5.392888 	 5.675975 	 -0.907202 
H 	 -1.502645 	 -0.492303 	 -1.066233 
H 	 -0.546657 	 -1.408824 	 -1.867118 
H 	 -0.891201 	 5.751481 	 -5.625607 
H 	 -0.015163 	 6.250778 	 -4.408849 
H 	 -7.307607 	 7.193997 	 6.314929 
H 	 6.195182 	 -6.982676 	 6.044489 
H 	 2.871129 	 -0.194849 	 1.268131 
H 	 2.989387 	 -0.339497 	 -0.195426 
H 	 -0.079575 	 6.510617 	 -2.239783 
H 	 0.624975 	 -7.123974 	 -2.458956 
H 	 -3.487573 	 -3.472003 	 -2.901043 
H 	 -3.376545 	 -2.323450 	 -1.882562 
H 	 0.279981 	 -1.539326 	 -4.544378 
H 	 -0.715713 	 -0.636437 	 -5.381413 
H 	 -3.148802 	 1.839722 	 -1.622537 
H 	 -3.830774 	 0.479505 	 -1.164124 
H 	 6.797433 	 0.536926 	 5.978760 
H 	 7.247693 	 1.856717 	 5.244729 
H 	 -6.292104 	 -1.025187 	 -6.333050 
H 	 -5.772370 	 -0.384729 	 -4.954236 
H 	 -6.906702 	 6.488437 	 -6.528552 
H 	 -6.028500 	 5.807524 	 7.359689 
H 	 -7.241320 	 -4.201495 	 -3.436538 
H 	 7.058087 	 -3.780539 	 -4.786924 
H 	 -5.907945 	 4.395545 	 -3.933775 
H 	 -5.340035 	 4.493650 	 -5.323025 
H 	 6.584339 	 -0.001454 	 -0.832846 
H 	 -6.929947 	 -0.210965 	 -0.442791 
H 	 -3.239777 	 3.777641 	 0.141579 
H 	 -7.214555 	 3.253321 	 3.411930 
H 	 4.697488 	 -4.050053 	 -4.683399 
H 	 3.933548 	 -5.412427 	 -4.423512 
H 	 0.464684 	 -4.263236 	 -3.170465 
H 	 -0.918487 	 -3.601835 	 -3.707263 
H 	 -1.730174 	 3.314306 	 -7.187861 
H 	 -1.655769 	 3.081786 	 6.201112 
H 	 -5.230530 	 -5.482955 	 1.891978 
H 	 -5.065318 	 -4.831359 	 0.595247 
H 	 -6.957397 	 4.353885 	 4.484305 
O 	 2.932907 	 -5.449082 	 0.329261 
O 	 -0.046869 	 5.781330 	 5.361913 
O 	 4.742425 	 -6.239259 	 6.829200 
O 	 0.774663 	 -5.475346 	 -1.766592 
O 	 3.797963 	 -7.134096 	 -4.629342 
O 	 1.896788 	 7.099950 	 -6.693235 
O 	 6.113755 	 5.235245 	 -1.132966 
O 	 3.902121 	 0.692498 	 -6.711831 
O 	 6.072594 	 6.694868 	 3.491766 
O 	 5.123296 	 -1.540152 	 -5.887902 
O 	 -1.551036 	 -4.901412 	 -0.168417 
O 	 6.571095 	 1.561302 	 -6.167961 
O 	 -2.570449 	 -1.159196 	 -6.071231 
O 	 2.020032 	 1.520976 	 -4.748058 
O 	 -5.125764 	 -5.129965 	 3.681447 
O 	 1.826902 	 -5.018759 	 -6.534123 
O 	 -2.126130 	 6.592354 	 -7.252970 
O 	 4.542254 	 3.950686 	 4.223085 
O 	 7.231504 	 2.994554 	 1.786055 
O 	 -4.077377 	 2.164541 	 2.918860 
O 	 -7.253629 	 -3.452426 	 2.154693 
O 	 -3.176505 	 -0.554235 	 3.122762 
O 	 2.352276 	 6.494640 	 0.078835 
O 	 4.633715 	 -4.396661 	 -1.473683 
O 	 -3.049264 	 5.226840 	 -3.363091 
O 	 -4.357890 	 -4.765446 	 -7.143987 
O 	 -6.907852 	 -2.104404 	 7.100544 
O 	 -4.471788 	 -3.054055 	 1.196555 
O 	 2.831674 	 -1.817637 	 4.837427 
O 	 1.969145 	 3.604850 	 2.367416 
O 	 -0.943260 	 -5.865335 	 6.625783 
O 	 2.287608 	 4.051894 	 -5.435907 
O 	 0.755400 	 -6.768519 	 2.528791 
O 	 3.114050 	 1.237352 	 5.273938 
O 	 3.608872 	 5.767696 	 -2.600621 
O 	 -0.590860 	 6.247599 	 -0.372089 
O 	 4.385293 	 4.985510 	 1.173028 
O 	 -3.843284 	 6.460698 	 3.120240 
O 	 -4.324975 	 3.307309 	 -6.116368 
O 	 -0.364011 	 0.282198 	 6.193023 
O 	 -5.015654 	 -2.580051 	 5.085805 
O 	 -0.904654 	 2.527107 	 -4.631104 
O 	 5.187975 	 -1.178637 	 -3.102598 
O 	 1.533311 	 -5.420026 	 5.578980 
O 	 -4.944917 	 1.156178 	 6.734528 
O 	 -2.907455 	 -7.201963 	 0.694339 
O 	 4.693095 	 -3.557292 	 5.994172 
O 	 5.778082 	 -0.746760 	 6.157253 
O 	 -6.390561 	 4.313036 	 -0.090672 
O 	 5.489113 	 1.702794 	 -0.237224 
O 	 6.337712 	 -6.605992 	 -2.005757 
O 	 -2.406325 	 -1.498732 	 5.496184 
O 	 -0.555777 	 3.771522 	 1.185581 
O 	 -2.867892 	 -0.599109 	 -0.016765 
O 	 -4.307171 	 5.462546 	 6.060716 
O 	 -0.439123 	 -3.730039 	 -6.641312 
O 	 3.369475 	 7.229525 	 3.656422 
O 	 -2.238026 	 -3.715794 	 2.723892 
O 	 -2.270454 	 -6.095277 	 4.079842 
O 	 -3.205169 	 3.012785 	 5.439796 
O 	 -5.610844 	 -1.387604 	 -3.348905 
O 	 -3.167433 	 0.916182 	 -4.437887 
O 	 0.835501 	 -3.394566 	 3.704818 
O 	 -6.807663 	 -0.737330 	 3.415198 
O 	 6.575257 	 -4.900978 	 4.306325 
O 	 -5.926542 	 2.908139 	 -2.982981 
O 	 -5.838940 	 -4.718229 	 -2.807635 
O 	 3.578939 	 2.862948 	 -2.818548 
O 	 3.814135 	 -4.274004 	 2.780157 
O 	 -6.505553 	 6.518316 	 1.649444 
O 	 7.253534 	 -3.239955 	 -0.738221 
O 	 1.589324 	 -1.494846 	 7.221396 
O 	 6.218736 	 3.533603 	 6.921900 
O 	 -2.580526 	 -6.382799 	 -5.079749 
O 	 6.175772 	 5.426979 	 -4.271780 
O 	 6.676174 	 -6.921515 	 -5.242126 
O 	 -2.080907 	 3.272687 	 -1.532027 
O 	 -1.070477 	 6.227295 	 2.777258 
O 	 2.422910 	 -1.322765 	 -1.771593 
O 	 -5.329587 	 -7.152811 	 -3.620851 
O 	 -6.348239 	 0.750259 	 1.111168 
O 	 1.579529 	 3.439047 	 5.614784 
O 	 6.188646 	 1.864098 	 -3.529393 
O 	 -7.423861 	 -4.911248 	 -6.979998 
O 	 4.584237 	 5.167308 	 -6.540977 
O 	 0.846382 	 2.118069 	 -1.582808 
O 	 -2.596178 	 -3.460096 	 -4.665894 
O 	 -0.598956 	 1.039724 	 0.933095 
O 	 0.577496 	 -2.368564 	 0.630278 
O 	 0.706146 	 0.777172 	 3.159821 
O 	 -4.748343 	 6.412588 	 -1.124896 
O 	 -0.569623 	 -0.563314 	 -1.410583 
O 	 -0.055903 	 5.619445 	 -5.141659 
O 	 7.156123 	 -7.024281 	 5.784554 
O 	 3.144192 	 0.284914 	 0.488267 
O 	 0.232942 	 7.024657 	 -2.998538 
O 	 -3.451003 	 -3.295015 	 -1.962874 
O 	 0.142211 	 -0.634807 	 -4.884646 
O 	 -3.833229 	 1.176814 	 -1.844491 
O 	 -7.384485 	 0.965804 	 5.477069 
O 	 -6.026761 	 -0.201536 	 -5.915102 
O 	 -6.942589 	 5.927880 	 -7.322059 
O 	 6.808324 	 -3.755168 	 -3.857541 
O 	 -5.900119 	 5.002929 	 -4.680963 
O 	 7.317770 	 -0.571326 	 -1.048361 
O 	 -3.775054 	 4.251635 	 0.834921 
O 	 3.786504 	 -4.439840 	 -4.625224 
O 	 0.053348 	 -3.411999 	 -3.476572 
O 	 -1.090935 	 3.041797 	 7.061517 
O 	 -5.280489 	 -5.767359 	 0.915846 
O 	 -6.792012 	 3.405092 	 4.307537 
K 	 3.066124 	 6.020283 	 5.932419 
