333
conformation = 8
H 	 56.868955 	 184.178801 	 -449.721917 
H 	 57.502798 	 -814.504241 	 -449.109890 
H 	 68.416705 	 181.561725 	 -444.464053 
H 	 69.382214 	 180.417608 	 -444.974822 
H 	 59.255515 	 184.417678 	 542.941608 
H 	 58.916333 	 185.132130 	 -443.437550 
H 	 -930.607607 	 -814.831652 	 -451.297675 
H 	 56.057881 	 -814.691682 	 -451.164082 
H 	 58.030275 	 182.720930 	 545.737732 
H 	 57.524889 	 183.112737 	 544.304325 
H 	 55.561914 	 182.349457 	 543.651536 
H 	 56.065861 	 183.670854 	 543.075598 
H 	 61.459849 	 180.637561 	 548.611428 
H 	 60.910122 	 182.057283 	 548.352118 
H 	 57.563638 	 176.646489 	 543.646735 
H 	 59.119146 	 176.888521 	 543.164929 
H 	 61.227072 	 182.429306 	 -447.459775 
H 	 60.789230 	 183.139962 	 -446.175603 
H 	 59.102447 	 174.583621 	 543.329117 
H 	 60.420410 	 173.709646 	 543.583205 
H 	 67.337458 	 -814.828752 	 -450.095492 
H 	 67.015012 	 -813.664240 	 -451.022000 
H 	 61.569023 	 176.492772 	 543.628892 
H 	 61.000324 	 177.854355 	 542.852332 
H 	 66.316387 	 174.653884 	 542.766125 
H 	 66.127372 	 175.178370 	 544.283707 
H 	 55.734234 	 176.114797 	 545.074611 
H 	 56.749691 	 177.140397 	 545.977944 
H 	 65.271326 	 185.138371 	 -446.056772 
H 	 64.026928 	 -813.884780 	 -445.896037 
H 	 -929.792272 	 -814.219758 	 543.215873 
H 	 56.667385 	 -814.273298 	 543.973211 
H 	 67.329023 	 183.240797 	 -443.233380 
H 	 66.332573 	 181.945048 	 -443.271590 
H 	 59.488255 	 179.416196 	 -445.299960 
H 	 58.156614 	 178.735731 	 -445.850402 
H 	 62.129017 	 179.281203 	 -449.459738 
H 	 60.723683 	 178.527338 	 -449.273309 
H 	 64.001607 	 178.131604 	 -447.127268 
H 	 65.094537 	 178.540276 	 -448.121498 
H 	 61.722339 	 172.549624 	 -449.275914 
H 	 62.053466 	 173.156237 	 -447.827920 
H 	 65.407341 	 175.833306 	 -447.459456 
H 	 65.547887 	 174.266414 	 -447.734546 
H 	 57.026349 	 181.724332 	 -449.494116 
H 	 55.562876 	 182.153867 	 -450.198281 
H 	 58.496936 	 -813.928307 	 547.156652 
H 	 58.339120 	 -814.184727 	 -451.289868 
H 	 65.773989 	 181.244791 	 545.745840 
H 	 65.249170 	 181.353768 	 547.203954 
H 	 65.236691 	 184.983234 	 542.734338 
H 	 64.081621 	 -814.124783 	 542.363700 
H 	 62.881544 	 173.319961 	 -443.919330 
H 	 62.061521 	 172.605015 	 542.139777 
H 	 65.342618 	 -812.999083 	 -448.466459 
H 	 63.961311 	 -812.602620 	 -448.914214 
H 	 56.740383 	 173.749185 	 -446.177157 
H 	 56.650406 	 174.171112 	 -444.673855 
H 	 56.872114 	 179.352393 	 -448.401519 
H 	 56.585987 	 179.869260 	 -446.934554 
H 	 68.192214 	 -814.375968 	 -443.153952 
H 	 69.030066 	 184.509006 	 -443.920152 
H 	 56.520272 	 178.716170 	 544.028963 
H 	 55.827985 	 180.093116 	 544.112098 
H 	 -930.008223 	 184.158766 	 -446.894728 
H 	 -930.300108 	 183.233203 	 -447.982142 
H 	 57.568524 	 176.037720 	 -445.281252 
H 	 57.944916 	 176.857769 	 -444.004258 
H 	 58.374831 	 181.233352 	 547.811408 
H 	 56.955387 	 181.569023 	 547.690859 
H 	 68.431146 	 180.908874 	 -450.498972 
H 	 67.836996 	 182.316487 	 -450.374750 
H 	 59.087036 	 180.733417 	 -448.203815 
H 	 59.429199 	 180.886728 	 -449.690718 
H 	 64.410343 	 181.923385 	 -447.496594 
H 	 65.881501 	 181.357079 	 -447.393433 
H 	 64.609856 	 178.621400 	 544.305341 
H 	 64.697583 	 178.256183 	 542.884995 
H 	 68.884940 	 177.200244 	 -443.997486 
H 	 68.093576 	 175.949403 	 -444.075071 
H 	 63.460052 	 173.775231 	 -446.162005 
H 	 64.739892 	 173.623381 	 -445.100646 
H 	 68.363273 	 179.452213 	 545.153804 
H 	 69.025823 	 178.045611 	 545.339951 
H 	 59.407520 	 174.927802 	 545.564942 
H 	 59.994316 	 173.952478 	 546.660425 
H 	 56.221696 	 -814.624615 	 -444.135644 
H 	 55.700194 	 -814.298255 	 -445.572802 
H 	 64.545046 	 176.117021 	 542.463967 
H 	 63.669605 	 176.566726 	 -443.734218 
H 	 66.586032 	 183.175528 	 -448.542151 
H 	 65.446325 	 183.919080 	 -449.334318 
H 	 58.188314 	 172.543356 	 -444.624638 
H 	 59.463014 	 -813.175529 	 -445.373167 
H 	 60.698388 	 174.281340 	 -443.766249 
H 	 59.456628 	 174.187114 	 -444.711199 
H 	 64.447042 	 179.885963 	 -449.681087 
H 	 63.131786 	 179.416001 	 -451.219576 
H 	 59.164559 	 176.736762 	 -450.161673 
H 	 59.010785 	 177.851265 	 -451.044676 
H 	 61.489292 	 184.425981 	 547.705904 
H 	 60.030498 	 184.305915 	 548.199203 
H 	 67.272166 	 173.448952 	 -445.178233 
H 	 66.543784 	 174.812848 	 -445.420454 
H 	 68.480592 	 178.609217 	 -449.184995 
H 	 -930.216289 	 179.346732 	 -448.603511 
H 	 66.911443 	 175.546789 	 -449.892537 
H 	 65.822551 	 174.549693 	 -449.662174 
H 	 65.040039 	 180.306999 	 -444.434307 
H 	 64.807116 	 181.501900 	 -445.325998 
H 	 69.258286 	 172.812000 	 543.296990 
H 	 67.987811 	 -813.080564 	 543.844820 
H 	 57.348559 	 183.208971 	 -447.355703 
H 	 58.849966 	 182.720978 	 -447.010553 
H 	 67.196742 	 -814.111420 	 -447.477798 
H 	 67.461943 	 -813.032857 	 -448.533980 
H 	 66.702581 	 183.508422 	 -446.218644 
H 	 67.337065 	 184.650905 	 -445.328454 
H 	 65.904524 	 178.442633 	 -445.921069 
H 	 65.398740 	 177.819176 	 -444.609433 
H 	 62.942489 	 174.551152 	 546.742564 
H 	 63.488129 	 173.158356 	 546.217499 
H 	 66.815351 	 177.215130 	 545.192480 
H 	 65.874048 	 176.439440 	 546.242021 
H 	 55.695600 	 -813.072746 	 -447.569951 
H 	 69.250996 	 -812.655909 	 -446.907501 
H 	 62.248340 	 175.373629 	 -446.222157 
H 	 62.702854 	 175.353891 	 -447.745738 
H 	 61.369970 	 -813.504774 	 -446.880976 
H 	 61.530700 	 -814.720632 	 -445.887121 
H 	 62.485085 	 178.125310 	 546.379447 
H 	 63.889714 	 178.122337 	 547.041650 
H 	 64.257858 	 -813.629142 	 547.160536 
H 	 63.611367 	 -814.527808 	 546.099036 
H 	 58.923338 	 178.101362 	 546.330643 
H 	 57.703536 	 179.054546 	 546.402039 
H 	 57.718744 	 -813.217534 	 -446.881493 
H 	 58.647624 	 -814.342339 	 -447.334230 
H 	 62.226476 	 181.547602 	 -449.240385 
H 	 62.806532 	 182.999036 	 -448.976393 
H 	 60.638387 	 -813.001843 	 548.657301 
H 	 61.323358 	 173.510317 	 -450.995260 
H 	 -929.752021 	 174.845345 	 -443.112523 
H 	 56.671925 	 174.615175 	 542.671390 
H 	 60.927297 	 179.993751 	 -443.528027 
H 	 59.636782 	 179.630941 	 542.325064 
H 	 66.834779 	 183.281517 	 543.987903 
H 	 66.604609 	 183.711411 	 545.406333 
H 	 61.444831 	 180.755945 	 545.235929 
H 	 60.401769 	 180.992245 	 546.316993 
H 	 61.587284 	 183.349940 	 545.133501 
H 	 60.344838 	 183.015033 	 544.510017 
H 	 68.054139 	 178.630026 	 548.260336 
H 	 67.074917 	 179.728107 	 547.685682 
H 	 68.581711 	 180.957206 	 -447.978660 
H 	 68.409320 	 181.753312 	 -446.630526 
H 	 57.728580 	 174.586246 	 547.248693 
H 	 57.154519 	 173.496294 	 548.279507 
H 	 64.053733 	 183.181431 	 547.067328 
H 	 63.951363 	 182.426411 	 545.704983 
H 	 62.314471 	 177.286179 	 -448.912940 
H 	 63.575015 	 176.567764 	 -449.498066 
H 	 56.323335 	 178.558266 	 -444.621397 
H 	 -929.780020 	 179.202070 	 -443.557326 
H 	 60.697149 	 177.440906 	 545.282354 
H 	 60.675819 	 176.640761 	 546.588506 
H 	 61.501351 	 185.026762 	 -442.987274 
H 	 62.002826 	 -814.756959 	 543.461043 
H 	 58.006700 	 180.213034 	 543.369558 
H 	 59.320051 	 180.636147 	 544.025008 
H 	 55.902179 	 177.867143 	 548.435328 
H 	 -930.027093 	 176.731475 	 547.805280 
H 	 66.218953 	 172.868517 	 544.345868 
H 	 66.079500 	 -813.889599 	 544.394123 
H 	 69.190981 	 176.628228 	 -448.960226 
H 	 69.038312 	 176.786355 	 -450.392828 
H 	 -930.415071 	 173.564937 	 -450.271497 
H 	 -930.392202 	 -812.979935 	 -449.658149 
H 	 55.881076 	 177.241182 	 -447.158472 
H 	 -930.068881 	 176.537336 	 -446.169119 
H 	 65.109860 	 182.218765 	 -450.657963 
H 	 63.745413 	 181.576304 	 -450.989036 
H 	 67.870145 	 174.516027 	 548.313907 
H 	 69.006684 	 174.425439 	 547.270997 
H 	 68.271131 	 181.511958 	 543.838002 
H 	 69.043094 	 181.805652 	 545.207044 
H 	 61.649533 	 182.905864 	 -444.215433 
H 	 60.204617 	 183.634173 	 -443.993016 
H 	 57.592001 	 175.279784 	 -449.263406 
H 	 57.192769 	 175.433520 	 -450.713931 
H 	 69.276406 	 182.550068 	 547.622476 
H 	 -930.099638 	 183.505061 	 546.768102 
H 	 66.450587 	 172.664034 	 547.088120 
H 	 65.651881 	 173.089835 	 548.449870 
H 	 -930.505338 	 174.026227 	 545.008179 
H 	 68.373392 	 174.930602 	 544.334842 
H 	 66.028066 	 177.705433 	 548.140433 
H 	 65.405942 	 176.289245 	 548.487933 
H 	 61.117857 	 176.369976 	 -444.413849 
H 	 61.861914 	 177.668091 	 -445.134269 
H 	 62.780374 	 174.712345 	 543.149090 
H 	 63.285470 	 175.108464 	 544.614467 
H 	 62.322220 	 181.701492 	 543.170890 
H 	 63.327554 	 181.458808 	 -443.063311 
H 	 61.824855 	 -813.401838 	 546.162397 
H 	 61.582997 	 -813.278361 	 544.648158 
H 	 63.441094 	 180.157603 	 545.549292 
H 	 63.915709 	 180.453086 	 544.134556 
H 	 60.783612 	 175.870692 	 548.371263 
H 	 61.930725 	 175.777363 	 -450.571770 
H 	 65.957490 	 179.463119 	 -449.799513 
H 	 62.089570 	 179.168694 	 -447.040859 
H 	 58.899490 	 -813.526083 	 544.819720 
H 	 58.134602 	 185.149122 	 545.125298 
H 	 -930.091289 	 -812.964851 	 546.693842 
H 	 68.778321 	 -813.466444 	 545.764710 
H 	 68.141120 	 178.468283 	 542.844934 
H 	 67.223243 	 178.777259 	 -443.585653 
H 	 63.853663 	 -814.669130 	 -448.461927 
H 	 63.686611 	 -814.524731 	 -449.935535 
H 	 63.027989 	 179.777187 	 -445.863054 
O 	 57.286951 	 185.055608 	 -449.950408 
O 	 69.074281 	 181.345096 	 -445.141506 
O 	 58.934388 	 184.224908 	 -443.059284 
O 	 -929.765002 	 -814.823458 	 548.154313 
O 	 58.248782 	 183.308203 	 544.977204 
O 	 56.257512 	 182.699356 	 542.999280 
O 	 60.610461 	 181.122257 	 548.457307 
O 	 58.227282 	 176.486094 	 542.933944 
O 	 60.473514 	 182.404836 	 -446.812748 
O 	 59.544927 	 173.974429 	 543.940579 
O 	 67.785009 	 -814.057965 	 -450.520085 
O 	 60.917539 	 177.253421 	 543.630617 
O 	 66.498254 	 174.461608 	 543.714138 
O 	 56.318407 	 176.885389 	 545.112103 
O 	 64.317874 	 -814.755955 	 -446.294104 
O 	 56.248394 	 -814.623311 	 543.130596 
O 	 67.065379 	 182.362414 	 542.329018 
O 	 58.765828 	 179.505467 	 -445.979830 
O 	 61.598723 	 178.693512 	 -448.763450 
O 	 64.850630 	 177.807370 	 -447.503677 
O 	 62.188469 	 -812.721698 	 -448.405893 
O 	 66.079467 	 175.110080 	 -447.491973 
O 	 56.555335 	 182.135513 	 -450.301506 
O 	 58.913449 	 -813.704646 	 548.039145 
O 	 66.004676 	 180.948848 	 546.632606 
O 	 65.040021 	 -814.106071 	 542.568302 
O 	 62.287062 	 173.513071 	 -443.165163 
O 	 64.918953 	 172.667916 	 -449.122270 
O 	 57.279331 	 174.052673 	 -445.433292 
O 	 56.352593 	 179.187168 	 -447.609050 
O 	 68.110916 	 184.711976 	 -443.633826 
O 	 56.671103 	 179.674567 	 544.195020 
O 	 -929.666880 	 183.960991 	 -447.779133 
O 	 57.593942 	 176.948747 	 -444.903455 
O 	 57.689261 	 181.276433 	 547.143306 
O 	 68.612182 	 181.865138 	 -450.730642 
O 	 58.707902 	 180.617090 	 -449.104398 
O 	 65.219579 	 181.929482 	 -446.917510 
O 	 65.043542 	 178.919458 	 543.531528 
O 	 69.037229 	 176.238657 	 -444.098204 
O 	 63.922223 	 173.235153 	 -445.405116 
O 	 68.219133 	 178.446566 	 545.029854 
O 	 59.562106 	 174.823707 	 546.540866 
O 	 55.777206 	 184.954268 	 -444.922186 
O 	 64.612947 	 176.699919 	 -443.401246 
O 	 66.309667 	 183.380183 	 -449.446213 
O 	 59.027884 	 -813.024186 	 -444.556406 
O 	 60.037798 	 174.819212 	 -444.217126 
O 	 62.942604 	 179.969475 	 -450.433987 
O 	 59.725411 	 177.331266 	 -450.639062 
O 	 60.758067 	 183.794118 	 547.825506 
O 	 66.733775 	 174.161708 	 -444.718244 
O 	 68.929249 	 179.494370 	 -449.090741 
O 	 66.239122 	 175.067319 	 -450.365891 
O 	 64.793470 	 181.243702 	 -444.414777 
O 	 68.646769 	 -813.037112 	 543.135223 
O 	 57.873757 	 182.668225 	 -446.753750 
O 	 67.190460 	 -813.154496 	 -447.615115 
O 	 67.011596 	 184.428308 	 -446.220029 
O 	 65.856148 	 178.590585 	 -444.928060 
O 	 63.558186 	 174.117287 	 546.155317 
O 	 66.105756 	 176.483530 	 545.296731 
O 	 -929.795490 	 -812.718016 	 -446.735981 
O 	 62.440169 	 174.751021 	 -446.974608 
O 	 60.861800 	 -814.151058 	 -446.349317 
O 	 63.229688 	 178.691345 	 546.626517 
O 	 63.385365 	 -814.044068 	 546.936071 
O 	 58.008848 	 178.170932 	 546.704712 
O 	 58.043538 	 -813.652354 	 -447.680174 
O 	 62.452234 	 182.205903 	 -448.581096 
O 	 61.492227 	 -812.594260 	 -450.993992 
O 	 56.086482 	 174.170085 	 -443.041593 
O 	 60.297882 	 179.270134 	 -443.483681 
O 	 66.894367 	 184.049716 	 544.572185 
O 	 60.531131 	 181.031717 	 545.334222 
O 	 61.035632 	 183.727918 	 544.423481 
O 	 67.141562 	 179.051243 	 548.369942 
O 	 68.206219 	 181.801972 	 -447.577645 
O 	 56.975233 	 174.322807 	 547.826610 
O 	 64.038177 	 183.330947 	 546.090618 
O 	 62.666281 	 176.363553 	 -449.206315 
O 	 55.838705 	 179.362482 	 -444.346112 
O 	 60.736246 	 177.599332 	 546.301881 
O 	 61.778992 	 -814.232213 	 542.673158 
O 	 58.812033 	 180.771606 	 543.181543 
O 	 -930.071864 	 177.679419 	 548.007684 
O 	 66.507276 	 -813.118965 	 544.772861 
O 	 68.453413 	 176.692493 	 -449.622062 
O 	 -929.981342 	 173.004681 	 -449.616148 
O 	 -929.893124 	 176.527008 	 -447.152402 
O 	 64.437363 	 182.224780 	 548.665114 
O 	 68.787082 	 174.740296 	 548.188633 
O 	 69.021755 	 181.250875 	 544.413489 
O 	 61.167962 	 183.716450 	 -444.364270 
O 	 57.486678 	 176.005596 	 -449.938462 
O 	 -930.393041 	 182.572581 	 546.699020 
O 	 66.017079 	 -812.752681 	 547.925648 
O 	 69.282806 	 174.952204 	 544.680469 
O 	 65.354687 	 177.053009 	 547.850381 
O 	 61.927109 	 176.694276 	 -444.810557 
O 	 63.012132 	 175.490301 	 543.731909 
O 	 62.352126 	 181.551192 	 542.211835 
O 	 61.131437 	 -813.128599 	 545.502508 
O 	 63.413765 	 180.859911 	 544.877167 
O 	 61.463803 	 175.228917 	 -451.239900 
O 	 65.319477 	 179.840113 	 -449.158793 
O 	 58.026832 	 -813.847563 	 545.077271 
O 	 69.274518 	 -812.679226 	 545.993911 
O 	 68.190174 	 178.702978 	 -443.246893 
O 	 63.839214 	 184.754136 	 -449.314486 
O 	 62.657316 	 178.976682 	 -446.230455 
K 	 57.463832 	 181.747805 	 -444.408643 
