333
conformation = 65
H 	 2.827760 	 -6.465830 	 0.296090 
H 	 3.138580 	 -5.133287 	 1.228042 
H 	 -0.657259 	 5.585562 	 6.069238 
H 	 0.359947 	 4.855271 	 5.268549 
H 	 4.443833 	 -6.488491 	 -7.105414 
H 	 4.573023 	 -5.352835 	 6.697282 
H 	 -0.099002 	 -5.462213 	 -1.301127 
H 	 1.391772 	 -5.634590 	 -0.945609 
H 	 3.666065 	 7.114514 	 -3.867328 
H 	 3.101923 	 -7.406479 	 -5.302183 
H 	 1.141690 	 6.636220 	 -6.141906 
H 	 1.682405 	 -6.898062 	 -6.584647 
H 	 7.096141 	 4.947365 	 -0.888304 
H 	 6.131027 	 6.177112 	 -1.240947 
H 	 3.357939 	 1.175655 	 -6.101001 
H 	 4.828316 	 0.984722 	 -6.552566 
H 	 6.830744 	 6.487997 	 2.892999 
H 	 6.616642 	 6.809444 	 4.326836 
H 	 4.630707 	 -0.847170 	 -6.295762 
H 	 5.934039 	 -1.665141 	 -6.406909 
H 	 -1.947125 	 -5.812413 	 0.021923 
H 	 -2.178010 	 -4.539833 	 -0.834262 
H 	 7.362021 	 0.957196 	 -6.347385 
H 	 6.547962 	 2.180124 	 -6.848807 
H 	 -2.951042 	 -1.191310 	 -6.986218 
H 	 -3.082980 	 -0.532986 	 -5.493200 
H 	 1.592595 	 0.588016 	 -4.743042 
H 	 2.472983 	 1.637806 	 -3.895266 
H 	 -4.198275 	 -5.466144 	 3.992027 
H 	 -5.164812 	 -4.221136 	 3.891470 
H 	 0.969076 	 -4.739427 	 -6.135912 
H 	 2.527967 	 -4.849169 	 -5.865195 
H 	 -1.590897 	 -7.616301 	 7.248350 
H 	 -2.954156 	 6.379062 	 7.167648 
H 	 5.350897 	 4.240277 	 4.666270 
H 	 4.352698 	 2.974468 	 4.526533 
H 	 -7.085979 	 3.474941 	 1.077873 
H 	 6.326376 	 2.913204 	 1.321596 
H 	 -4.914949 	 2.553712 	 3.236418 
H 	 -3.717877 	 2.797275 	 2.238669 
H 	 7.364148 	 -3.447208 	 1.218083 
H 	 7.250041 	 -2.809548 	 2.681143 
H 	 -3.476443 	 0.354098 	 3.072795 
H 	 -3.923588 	 -1.099531 	 2.623992 
H 	 2.807292 	 5.705856 	 0.651583 
H 	 1.368604 	 6.456643 	 0.144640 
H 	 4.108167 	 -3.953950 	 -2.157219 
H 	 3.955355 	 -4.759881 	 -0.827826 
H 	 -3.782958 	 4.712102 	 -3.820499 
H 	 -3.533544 	 5.589899 	 -2.524619 
H 	 -4.338219 	 -5.568498 	 -6.564963 
H 	 -5.312653 	 -4.645394 	 -7.148513 
H 	 -6.232630 	 -2.400622 	 6.421913 
H 	 -7.153296 	 -2.997714 	 7.495651 
H 	 -3.781561 	 -3.639766 	 1.682483 
H 	 -5.216494 	 -3.288444 	 1.780098 
H 	 2.072576 	 -2.229911 	 4.372208 
H 	 2.509237 	 -1.801955 	 5.817932 
H 	 2.752169 	 3.433368 	 1.820200 
H 	 2.255132 	 4.049936 	 3.181740 
H 	 -1.027877 	 -5.080789 	 7.261829 
H 	 -0.064948 	 -5.882406 	 6.254855 
H 	 1.972128 	 3.120133 	 -5.112030 
H 	 1.622073 	 4.628082 	 -5.286418 
H 	 0.903754 	 -6.692577 	 3.488132 
H 	 0.072663 	 -7.504389 	 2.556538 
H 	 2.783782 	 0.355875 	 4.898985 
H 	 3.426887 	 0.917660 	 6.155900 
H 	 4.438725 	 5.471555 	 -2.177572 
H 	 3.088029 	 6.128987 	 -1.885612 
H 	 -0.612353 	 5.360553 	 0.133185 
H 	 -1.230715 	 6.758153 	 0.095863 
H 	 4.968120 	 4.872529 	 1.934433 
H 	 4.995328 	 4.816949 	 0.420017 
H 	 -4.744062 	 6.785961 	 3.014379 
H 	 -3.781245 	 5.607430 	 2.548466 
H 	 -3.772369 	 2.577902 	 -5.745687 
H 	 -4.556734 	 2.983435 	 -7.009044 
H 	 -0.822589 	 0.804807 	 6.853255 
H 	 -0.963427 	 -0.510786 	 6.147406 
H 	 -5.511101 	 -2.097866 	 4.343792 
H 	 -4.238977 	 -2.140705 	 5.328585 
H 	 -0.809020 	 3.473402 	 -4.826078 
H 	 -0.005039 	 2.120681 	 -4.616365 
H 	 5.059111 	 -1.631499 	 -3.944762 
H 	 5.909459 	 -1.620037 	 -2.573298 
H 	 1.895984 	 -5.331686 	 6.470422 
H 	 1.778553 	 -4.634262 	 5.131581 
H 	 -5.210746 	 0.608921 	 7.550631 
H 	 -5.700950 	 0.995640 	 6.118110 
H 	 -2.768502 	 7.057461 	 1.489940 
H 	 -3.644793 	 -6.732960 	 1.100368 
H 	 4.203293 	 -3.307740 	 5.192070 
H 	 5.526197 	 -3.909490 	 5.695931 
H 	 6.312416 	 -1.552563 	 6.460080 
H 	 4.998736 	 -1.047490 	 5.624409 
H 	 -4.700840 	 4.138217 	 0.500505 
H 	 -6.226745 	 3.606251 	 -0.808357 
H 	 4.619822 	 1.707561 	 0.149491 
H 	 5.420224 	 2.312055 	 -0.971762 
H 	 7.218221 	 -6.254422 	 -1.844157 
H 	 5.716937 	 -5.921607 	 -1.911304 
H 	 -1.753039 	 -2.213851 	 5.651984 
H 	 -2.419244 	 -1.432100 	 4.509110 
H 	 -0.634195 	 2.738574 	 1.067619 
H 	 0.434870 	 3.877498 	 1.372808 
H 	 -2.232306 	 -0.253939 	 0.573419 
H 	 -3.113489 	 -1.444721 	 0.436853 
H 	 -3.772648 	 4.591240 	 5.920250 
H 	 -4.351177 	 5.726032 	 5.123323 
H 	 -0.293202 	 -2.853964 	 -6.995582 
H 	 -1.064185 	 -3.679165 	 -5.926311 
H 	 2.822154 	 -7.435610 	 2.891319 
H 	 4.296332 	 7.250080 	 3.297643 
H 	 -2.146119 	 -4.581742 	 3.267666 
H 	 -1.794829 	 -4.044040 	 1.906240 
H 	 -1.818363 	 -6.927836 	 3.700804 
H 	 -1.853364 	 -6.029021 	 4.937201 
H 	 -3.319620 	 2.636772 	 4.511368 
H 	 -3.692039 	 2.300735 	 5.969934 
H 	 -6.045065 	 -0.890814 	 -2.714955 
H 	 -6.251123 	 -2.154630 	 -3.549626 
H 	 -2.238102 	 1.253508 	 -4.454167 
H 	 -3.452805 	 0.711930 	 -3.504194 
H 	 0.886295 	 -3.020166 	 2.806161 
H 	 -0.068969 	 -3.330046 	 3.918350 
H 	 -7.001209 	 -0.169997 	 4.130545 
H 	 -6.788260 	 -0.204769 	 2.616313 
H 	 7.048144 	 -4.465616 	 3.547699 
H 	 7.088975 	 -5.735656 	 4.532215 
H 	 -6.857271 	 2.551658 	 -3.027434 
H 	 -5.374490 	 2.238590 	 -2.509490 
H 	 -5.228710 	 -4.282271 	 -2.214900 
H 	 -5.358840 	 -5.569358 	 -3.057767 
H 	 4.413690 	 2.586849 	 -3.295419 
H 	 3.466031 	 3.710580 	 -3.130135 
H 	 3.323203 	 -3.822193 	 3.415941 
H 	 4.673732 	 -4.563248 	 3.144072 
H 	 -6.258934 	 5.753789 	 1.063610 
H 	 -6.381271 	 -7.589411 	 1.225585 
H 	 6.335304 	 -3.511259 	 -1.031787 
H 	 7.158052 	 -2.293658 	 -0.656654 
H 	 1.066213 	 -0.739692 	 6.913040 
H 	 2.128605 	 -1.308122 	 -6.919687 
H 	 6.985904 	 4.025447 	 6.986562 
H 	 5.554798 	 3.963262 	 7.502102 
H 	 -2.576235 	 -7.149522 	 -5.734607 
H 	 -3.124692 	 -6.828539 	 -4.419529 
H 	 7.069808 	 5.270546 	 -4.640074 
H 	 6.375606 	 5.346752 	 -3.343895 
H 	 7.095269 	 -6.620559 	 -4.414029 
H 	 5.728986 	 -6.954606 	 -4.927351 
H 	 -1.089993 	 2.993093 	 -1.631990 
H 	 -2.257104 	 3.907845 	 -2.193728 
H 	 -0.749373 	 5.322001 	 2.388088 
H 	 -0.950371 	 5.982042 	 3.797899 
H 	 3.362075 	 -1.367891 	 -2.064097 
H 	 2.146575 	 -2.131559 	 -1.314257 
H 	 -5.126940 	 7.036384 	 -2.907748 
H 	 -5.629755 	 7.195928 	 -4.396313 
H 	 -6.901187 	 1.555957 	 1.314849 
H 	 -5.451337 	 0.949453 	 1.279476 
H 	 2.176177 	 2.637352 	 5.603139 
H 	 0.793111 	 3.101955 	 6.141337 
H 	 6.408290 	 1.966175 	 -4.488678 
H 	 6.309929 	 0.836891 	 -3.493735 
H 	 -7.359033 	 -5.187946 	 7.009135 
H 	 6.886532 	 -5.683707 	 -6.659268 
H 	 4.036431 	 4.585440 	 -5.896096 
H 	 5.127230 	 5.550481 	 -5.874139 
H 	 1.620462 	 2.244664 	 -2.114391 
H 	 0.514322 	 1.185378 	 -1.860913 
H 	 -2.790589 	 -2.688305 	 -5.191296 
H 	 -3.097782 	 -4.272187 	 -5.081972 
H 	 -0.141255 	 0.731146 	 1.762853 
H 	 0.105561 	 0.937359 	 0.240061 
H 	 0.333630 	 -1.576060 	 0.251190 
H 	 0.479984 	 -3.089786 	 -0.059255 
H 	 1.026153 	 1.670326 	 3.176456 
H 	 0.245083 	 0.635226 	 4.036257 
H 	 -4.245349 	 6.627653 	 -0.329343 
H 	 -5.296571 	 5.601314 	 -0.860085 
H 	 -1.505748 	 -0.591934 	 -1.132016 
H 	 -0.578878 	 -1.499331 	 -1.842382 
H 	 -0.870498 	 5.750533 	 -5.670898 
H 	 0.002971 	 6.265882 	 -4.379578 
H 	 -7.397564 	 7.163428 	 6.395832 
H 	 6.226593 	 -6.947175 	 6.041278 
H 	 2.870311 	 -0.317656 	 1.233705 
H 	 2.998052 	 -0.390060 	 -0.311075 
H 	 -0.074414 	 6.410283 	 -2.268972 
H 	 0.595139 	 -7.159224 	 -2.466146 
H 	 -3.490263 	 -3.517560 	 -2.916437 
H 	 -3.368966 	 -2.395428 	 -1.817947 
H 	 0.247415 	 -1.589551 	 -4.513133 
H 	 -0.712671 	 -0.663792 	 -5.372149 
H 	 -3.144240 	 1.833611 	 -1.582672 
H 	 -3.742326 	 0.440622 	 -1.151456 
H 	 6.737691 	 0.548809 	 5.971224 
H 	 7.218314 	 1.849291 	 5.180563 
H 	 -6.341325 	 -1.085768 	 -6.380040 
H 	 -5.859375 	 -0.460113 	 -4.965729 
H 	 -6.934873 	 6.433429 	 -6.496336 
H 	 -6.001224 	 5.706235 	 7.240795 
H 	 -7.311338 	 -4.211940 	 -3.489243 
H 	 7.087108 	 -3.774697 	 -4.831017 
H 	 -5.943880 	 4.300055 	 -3.962064 
H 	 -5.379570 	 4.443597 	 -5.338792 
H 	 6.494550 	 -0.026852 	 -0.812022 
H 	 -6.957679 	 -0.284578 	 -0.319777 
H 	 -3.256138 	 3.876073 	 0.086531 
H 	 -7.180274 	 3.277927 	 3.377519 
H 	 4.638829 	 -4.057831 	 -4.663986 
H 	 4.003123 	 -5.456292 	 -4.520798 
H 	 0.361884 	 -4.328160 	 -3.176804 
H 	 -0.852572 	 -3.653310 	 -3.773204 
H 	 -1.798840 	 3.213427 	 -7.190928 
H 	 -1.656868 	 3.075538 	 6.232317 
H 	 -5.259908 	 -5.541847 	 1.917346 
H 	 -5.137546 	 -4.925938 	 0.496964 
H 	 -6.898529 	 4.305447 	 4.484446 
O 	 2.939310 	 -5.491291 	 0.345810 
O 	 -0.055631 	 5.735912 	 5.338780 
O 	 4.740813 	 -6.287986 	 6.866539 
O 	 0.805275 	 -5.512888 	 -1.750991 
O 	 3.801059 	 -7.180775 	 -4.630462 
O 	 1.901387 	 7.048993 	 -6.695486 
O 	 6.132971 	 5.197318 	 -1.138100 
O 	 3.905205 	 0.653930 	 -6.712500 
O 	 6.068623 	 6.665714 	 3.499920 
O 	 5.122892 	 -1.585049 	 -5.877475 
O 	 -1.549093 	 -4.931072 	 -0.168809 
O 	 6.572456 	 1.514439 	 -6.148220 
O 	 -2.581389 	 -1.215591 	 -6.056178 
O 	 2.015137 	 1.459387 	 -4.734878 
O 	 -5.103123 	 -5.185361 	 3.721305 
O 	 1.825374 	 -5.077122 	 -6.532764 
O 	 -2.139490 	 6.560021 	 -7.264320 
O 	 4.529994 	 3.902236 	 4.235110 
O 	 7.242914 	 2.936529 	 1.778119 
O 	 -4.100736 	 2.109310 	 2.917930 
O 	 -7.240386 	 -3.481883 	 2.140171 
O 	 -3.171752 	 -0.596604 	 3.102465 
O 	 2.337720 	 6.441330 	 0.085582 
O 	 4.632127 	 -4.434331 	 -1.480230 
O 	 -3.065475 	 5.190391 	 -3.338351 
O 	 -4.341315 	 -4.803831 	 -7.138309 
O 	 -6.912980 	 -2.143463 	 7.100824 
O 	 -4.457392 	 -3.120236 	 1.195970 
O 	 2.845182 	 -1.854587 	 4.847917 
O 	 1.959134 	 3.557438 	 2.388595 
O 	 -0.943469 	 -5.896286 	 6.646094 
O 	 2.294883 	 3.994466 	 -5.437993 
O 	 0.775920 	 -6.807125 	 2.526903 
O 	 3.130596 	 1.190565 	 5.287993 
O 	 3.588310 	 5.706014 	 -2.596554 
O 	 -0.601204 	 6.203602 	 -0.373515 
O 	 4.384533 	 4.952749 	 1.181098 
O 	 -3.839281 	 6.402843 	 3.142886 
O 	 -4.319307 	 3.256733 	 -6.111498 
O 	 -0.352294 	 0.264854 	 6.196240 
O 	 -5.032145 	 -2.620959 	 5.071714 
O 	 -0.912264 	 2.494286 	 -4.626124 
O 	 5.199767 	 -1.195357 	 -3.115537 
O 	 1.521360 	 -5.477911 	 5.556948 
O 	 -4.909989 	 1.099694 	 6.750549 
O 	 -2.900459 	 -7.252142 	 0.708120 
O 	 4.685008 	 -3.593877 	 5.967450 
O 	 5.792037 	 -0.808947 	 6.153819 
O 	 -6.383322 	 4.264813 	 -0.087909 
O 	 5.475742 	 1.644259 	 -0.241139 
O 	 6.340791 	 -6.664622 	 -1.984520 
O 	 -2.423008 	 -1.536468 	 5.504967 
O 	 -0.522676 	 3.703092 	 1.188679 
O 	 -2.870069 	 -0.638828 	 -0.025387 
O 	 -4.318063 	 5.419937 	 6.048679 
O 	 -0.438671 	 -3.775848 	 -6.624998 
O 	 3.392825 	 7.161724 	 3.665135 
O 	 -2.238077 	 -3.765146 	 2.720551 
O 	 -2.259753 	 -6.138002 	 4.070557 
O 	 -3.217304 	 2.964557 	 5.432025 
O 	 -5.602022 	 -1.447069 	 -3.372167 
O 	 -3.164132 	 0.854202 	 -4.418882 
O 	 0.864041 	 -3.444619 	 3.713939 
O 	 -6.804142 	 -0.785505 	 3.410788 
O 	 6.576071 	 -4.933692 	 4.279495 
O 	 -5.919362 	 2.871876 	 -2.997239 
O 	 -5.842963 	 -4.751533 	 -2.807001 
O 	 3.583782 	 2.784466 	 -2.835402 
O 	 3.798856 	 -4.314644 	 2.771536 
O 	 -6.537675 	 6.470004 	 1.659344 
O 	 7.255450 	 -3.270324 	 -0.740758 
O 	 1.609698 	 -1.536950 	 7.231257 
O 	 6.189500 	 3.497691 	 6.918503 
O 	 -2.549760 	 -6.441783 	 -5.082748 
O 	 6.177707 	 5.386420 	 -4.286384 
O 	 6.679444 	 -6.967732 	 -5.241867 
O 	 -2.081738 	 3.231827 	 -1.506178 
O 	 -1.054364 	 6.193456 	 2.786005 
O 	 2.436630 	 -1.377915 	 -1.774596 
O 	 -5.319000 	 -7.199722 	 -3.619743 
O 	 -6.375224 	 0.709334 	 1.104439 
O 	 1.574189 	 3.420086 	 5.646031 
O 	 6.210004 	 1.826043 	 -3.527876 
O 	 -7.433990 	 -4.957324 	 -6.976367 
O 	 4.579920 	 5.113056 	 -6.529808 
O 	 0.840573 	 2.067810 	 -1.588144 
O 	 -2.598790 	 -3.526343 	 -4.689188 
O 	 -0.596467 	 0.996528 	 0.910653 
O 	 0.592816 	 -2.437695 	 0.640847 
O 	 0.725021 	 0.742500 	 3.151592 
O 	 -4.751575 	 6.383494 	 -1.094313 
O 	 -0.573130 	 -0.622941 	 -1.397758 
O 	 -0.062794 	 5.573406 	 -5.145051 
O 	 7.129165 	 -7.053249 	 5.779926 
O 	 3.159087 	 0.249809 	 0.483953 
O 	 0.247012 	 6.973492 	 -3.001137 
O 	 -3.429612 	 -3.334661 	 -1.938877 
O 	 0.131245 	 -0.680938 	 -4.900815 
O 	 -3.832574 	 1.147302 	 -1.843204 
O 	 -7.384336 	 0.914463 	 5.484293 
O 	 -6.037309 	 -0.246343 	 -5.904277 
O 	 -6.940531 	 5.877866 	 -7.316020 
O 	 6.818785 	 -3.811064 	 -3.872551 
O 	 -5.891128 	 4.978795 	 -4.696667 
O 	 7.301043 	 -0.612889 	 -1.037739 
O 	 -3.787879 	 4.203241 	 0.855276 
O 	 3.776976 	 -4.492414 	 -4.625982 
O 	 0.061579 	 -3.450143 	 -3.497301 
O 	 -1.085647 	 2.994704 	 7.058331 
O 	 -5.284060 	 -5.791330 	 0.919841 
O 	 -6.776701 	 3.343406 	 4.299656 
K 	 3.072596 	 5.979017 	 5.924269 
