333
conformation = 56
H 	 2.793141 	 -6.505112 	 0.371083 
H 	 2.948556 	 -5.217796 	 1.289284 
H 	 -0.708052 	 5.435347 	 6.036117 
H 	 0.438925 	 4.840290 	 5.197163 
H 	 4.500748 	 -6.574777 	 -7.021016 
H 	 4.526951 	 -5.383391 	 6.767883 
H 	 -0.005765 	 -5.375220 	 -1.192760 
H 	 1.483126 	 -5.717241 	 -0.995873 
H 	 3.650200 	 7.092635 	 -3.836602 
H 	 3.161005 	 -7.634168 	 -5.330141 
H 	 1.128440 	 6.503594 	 -6.296750 
H 	 1.735259 	 -6.916693 	 -6.657057 
H 	 7.024799 	 4.883322 	 -0.783283 
H 	 6.160730 	 6.154381 	 -1.253970 
H 	 3.346996 	 1.035314 	 -5.971456 
H 	 4.808445 	 0.859524 	 -6.427589 
H 	 6.751998 	 6.549190 	 2.873365 
H 	 6.455232 	 6.982362 	 4.378275 
H 	 4.760979 	 -0.860030 	 -6.354913 
H 	 5.942644 	 -1.749883 	 -6.264141 
H 	 -2.044538 	 -5.796162 	 0.081524 
H 	 -2.133808 	 -4.421210 	 -0.820787 
H 	 7.353631 	 0.953603 	 -6.308646 
H 	 6.553005 	 2.218144 	 -6.797805 
H 	 -2.982491 	 -1.205340 	 -6.947372 
H 	 -3.097276 	 -0.546548 	 -5.514511 
H 	 1.448038 	 0.548050 	 -4.437173 
H 	 2.556679 	 1.575853 	 -3.930022 
H 	 -4.156649 	 -5.516216 	 3.948046 
H 	 -5.139613 	 -4.318057 	 3.999407 
H 	 0.981749 	 -4.733082 	 -6.115693 
H 	 2.535842 	 -4.774644 	 -5.987485 
H 	 -1.737832 	 -7.594801 	 7.160112 
H 	 -3.064742 	 6.401496 	 7.105215 
H 	 5.250557 	 4.071012 	 4.754501 
H 	 4.432695 	 2.899816 	 4.453051 
H 	 -7.163357 	 3.487925 	 1.069021 
H 	 6.324594 	 2.841151 	 1.357698 
H 	 -5.020253 	 2.483899 	 3.241152 
H 	 -3.863458 	 2.669941 	 2.212283 
H 	 7.302469 	 -3.449601 	 1.179303 
H 	 7.228241 	 -2.762967 	 2.604635 
H 	 -3.561789 	 0.254899 	 2.969847 
H 	 -3.864489 	 -1.232958 	 2.694028 
H 	 2.617512 	 5.621334 	 0.627620 
H 	 1.311227 	 6.307275 	 0.169461 
H 	 4.052688 	 -4.174366 	 -2.252553 
H 	 3.956137 	 -4.786979 	 -0.759420 
H 	 -3.757008 	 4.766584 	 -3.949397 
H 	 -3.685014 	 5.553523 	 -2.574721 
H 	 -4.394276 	 -5.680794 	 -6.585786 
H 	 -5.294554 	 -4.643549 	 7.525919 
H 	 -6.231484 	 -2.236304 	 6.455013 
H 	 -7.216309 	 -3.042629 	 7.469570 
H 	 -3.770549 	 -3.568080 	 1.777173 
H 	 -5.353765 	 -3.277413 	 1.659217 
H 	 2.012264 	 -2.103840 	 4.337408 
H 	 2.447138 	 -1.888456 	 5.798999 
H 	 2.777066 	 3.372796 	 1.978520 
H 	 2.219885 	 4.057602 	 3.150159 
H 	 -1.070667 	 -5.146801 	 7.270122 
H 	 -0.084685 	 -5.884468 	 6.287833 
H 	 1.963186 	 3.074234 	 -5.108965 
H 	 1.582215 	 4.566366 	 -5.203660 
H 	 0.947455 	 -6.807721 	 3.495255 
H 	 0.103805 	 -7.551671 	 2.425784 
H 	 2.673374 	 0.353028 	 4.904607 
H 	 3.383219 	 0.764278 	 6.229668 
H 	 4.389045 	 5.349212 	 -2.235528 
H 	 3.012007 	 6.039816 	 -1.870878 
H 	 -0.557401 	 5.288260 	 0.189450 
H 	 -1.388533 	 6.730352 	 0.003450 
H 	 4.891904 	 4.669217 	 1.932094 
H 	 4.883277 	 4.972739 	 0.379825 
H 	 -4.810361 	 6.600978 	 3.028698 
H 	 -3.800412 	 5.516018 	 2.644793 
H 	 -3.831100 	 2.495767 	 -5.622109 
H 	 -4.543697 	 2.892432 	 -6.985102 
H 	 -0.736256 	 0.894100 	 6.856735 
H 	 -1.042601 	 -0.424385 	 6.086522 
H 	 -5.420273 	 -1.985930 	 4.367230 
H 	 -4.290245 	 -2.225949 	 5.369786 
H 	 -0.806582 	 3.437249 	 -4.757796 
H 	 -0.043715 	 2.077117 	 -4.484646 
H 	 5.109951 	 -1.682921 	 -3.987684 
H 	 5.725961 	 -1.818293 	 -2.600652 
H 	 1.869762 	 -5.420034 	 6.405907 
H 	 1.600476 	 -4.705748 	 5.054099 
H 	 -5.152508 	 0.609386 	 -7.298539 
H 	 -5.679704 	 0.971582 	 6.170706 
H 	 -2.698923 	 6.980270 	 1.524551 
H 	 -3.751470 	 -6.780238 	 1.019556 
H 	 4.181233 	 -3.288300 	 5.127029 
H 	 5.477186 	 -3.961405 	 5.519831 
H 	 6.298322 	 -1.651440 	 6.362250 
H 	 4.976905 	 -1.185125 	 5.696905 
H 	 -4.815908 	 4.058647 	 0.537091 
H 	 -6.329404 	 3.729149 	 -0.940091 
H 	 4.495580 	 1.492546 	 0.085219 
H 	 5.357656 	 2.276721 	 -0.954550 
H 	 7.128668 	 -6.218311 	 -1.943137 
H 	 5.631330 	 -6.020155 	 -2.039163 
H 	 -1.848642 	 -2.267507 	 5.632082 
H 	 -2.379148 	 -1.351897 	 4.549133 
H 	 -0.671371 	 2.628059 	 1.045053 
H 	 0.369441 	 3.637496 	 1.606383 
H 	 -2.202856 	 -0.236532 	 0.487866 
H 	 -3.249722 	 -1.448811 	 0.454864 
H 	 -3.845143 	 4.585395 	 5.866558 
H 	 -4.323244 	 5.788272 	 5.165038 
H 	 -0.341920 	 -2.900671 	 -6.940122 
H 	 -1.219003 	 -3.792939 	 -5.932495 
H 	 2.772996 	 -7.359039 	 3.003700 
H 	 4.310859 	 6.998505 	 3.312806 
H 	 -2.094564 	 -4.651648 	 3.215024 
H 	 -1.792020 	 -3.941975 	 1.864451 
H 	 -2.130114 	 -7.130925 	 3.796688 
H 	 -1.937120 	 -6.086227 	 4.988185 
H 	 -3.478996 	 2.530733 	 4.500138 
H 	 -3.743825 	 2.304243 	 6.026944 
H 	 -6.143314 	 -1.078864 	 -2.655822 
H 	 -6.333455 	 -2.233375 	 -3.471984 
H 	 -2.371116 	 1.318254 	 -4.389932 
H 	 -3.424640 	 0.696442 	 -3.439614 
H 	 0.843656 	 -3.140827 	 2.789633 
H 	 -0.101500 	 -3.344479 	 3.893711 
H 	 -7.257579 	 -0.318887 	 4.178038 
H 	 -6.949145 	 -0.330025 	 2.555687 
H 	 7.071301 	 -4.726296 	 3.422612 
H 	 7.026980 	 -5.610829 	 4.697726 
H 	 -6.879313 	 2.549807 	 -3.000051 
H 	 -5.413260 	 2.097357 	 -2.676363 
H 	 -5.266682 	 -4.275136 	 -2.236072 
H 	 -5.532947 	 -5.684562 	 -3.051973 
H 	 4.468427 	 2.445378 	 -3.225545 
H 	 3.407409 	 3.619646 	 -3.082789 
H 	 3.349454 	 -3.807499 	 3.451707 
H 	 4.568222 	 -4.687306 	 3.111695 
H 	 -6.359329 	 5.737656 	 1.050318 
H 	 -6.458929 	 7.210969 	 1.117038 
H 	 6.319950 	 -3.580887 	 -1.012920 
H 	 7.096864 	 -2.276720 	 -0.712266 
H 	 1.045464 	 -0.810642 	 6.998613 
H 	 2.274960 	 -1.309367 	 -7.013560 
H 	 6.961673 	 3.919283 	 7.004616 
H 	 5.491066 	 3.989924 	 7.555384 
H 	 -2.557644 	 -7.271668 	 -5.704869 
H 	 -3.066571 	 -6.783827 	 -4.282643 
H 	 7.086824 	 5.236199 	 -4.586530 
H 	 6.137306 	 5.380292 	 -3.345716 
H 	 7.161392 	 -6.920898 	 -4.418328 
H 	 5.695789 	 -7.038696 	 -4.992162 
H 	 -1.177136 	 2.994383 	 -1.617433 
H 	 -2.393908 	 3.771432 	 -2.209945 
H 	 -1.018708 	 5.340565 	 2.284023 
H 	 -0.943124 	 5.837040 	 3.718230 
H 	 3.353900 	 -1.549019 	 -2.126679 
H 	 2.347513 	 -2.227052 	 -1.227589 
H 	 -5.233825 	 7.071335 	 -2.871901 
H 	 -5.605287 	 7.120804 	 -4.361875 
H 	 -7.023473 	 1.456015 	 1.329347 
H 	 -5.550212 	 0.881503 	 1.305698 
H 	 2.063009 	 2.605976 	 5.636078 
H 	 0.784574 	 3.088891 	 6.307956 
H 	 6.418653 	 1.950679 	 -4.514469 
H 	 6.172021 	 0.826575 	 -3.410146 
H 	 -7.340848 	 -5.330319 	 7.005836 
H 	 6.793572 	 -5.626303 	 -6.512717 
H 	 3.779000 	 4.692190 	 -5.948329 
H 	 5.251149 	 5.466033 	 -5.925883 
H 	 1.570987 	 2.231831 	 -2.046175 
H 	 0.574447 	 1.079599 	 -1.819040 
H 	 -2.946214 	 -2.774026 	 -5.234041 
H 	 -3.258605 	 -4.269336 	 -5.189875 
H 	 -0.367806 	 0.622221 	 1.756337 
H 	 0.065609 	 1.098258 	 0.205886 
H 	 0.287487 	 -1.779504 	 0.111056 
H 	 0.463270 	 -3.250813 	 0.036777 
H 	 1.060577 	 1.636830 	 3.112785 
H 	 0.082378 	 0.591793 	 3.905354 
H 	 -4.177861 	 6.707229 	 -0.350601 
H 	 -5.203533 	 5.512150 	 -0.705275 
H 	 -1.595233 	 -0.673491 	 -1.175649 
H 	 -0.525239 	 -1.527220 	 -1.883777 
H 	 -0.860340 	 5.830001 	 -5.718357 
H 	 -0.092700 	 6.177768 	 -4.428934 
H 	 7.275519 	 7.201694 	 6.491080 
H 	 6.126058 	 -6.805466 	 6.138702 
H 	 2.862934 	 -0.405152 	 1.141069 
H 	 2.959852 	 -0.216582 	 -0.357540 
H 	 -0.132936 	 6.311525 	 -2.360217 
H 	 0.483609 	 -7.102460 	 -2.602909 
H 	 -3.403142 	 -3.405491 	 -2.861546 
H 	 -3.450129 	 -2.435067 	 -1.752734 
H 	 0.107890 	 -1.602227 	 -4.472336 
H 	 -0.810691 	 -0.742911 	 -5.368761 
H 	 -3.234388 	 1.849251 	 -1.630217 
H 	 -3.654831 	 0.447652 	 -1.157008 
H 	 6.650043 	 0.478361 	 5.850398 
H 	 7.275345 	 1.765852 	 5.122566 
H 	 -6.412763 	 -1.064574 	 -6.407501 
H 	 -6.025425 	 -0.638539 	 -4.946784 
H 	 -6.941970 	 6.285961 	 -6.461738 
H 	 -6.119768 	 5.664403 	 7.214343 
H 	 -7.303700 	 -4.290621 	 -3.415560 
H 	 7.038873 	 -3.755690 	 -4.850676 
H 	 -6.037838 	 4.272823 	 -4.058759 
H 	 -5.515992 	 4.404887 	 -5.431288 
H 	 6.424938 	 -0.114381 	 -0.869196 
H 	 -7.157077 	 -0.395626 	 -0.229851 
H 	 -3.248173 	 4.146069 	 0.102165 
H 	 -7.189664 	 3.293192 	 3.358905 
H 	 4.522005 	 -3.981732 	 -4.659037 
H 	 4.005565 	 -5.503792 	 -4.623708 
H 	 0.278202 	 -4.348502 	 -3.118639 
H 	 -0.889698 	 -3.659657 	 -3.937930 
H 	 -1.764714 	 3.049303 	 -7.142973 
H 	 -1.704854 	 3.028969 	 6.205079 
H 	 -5.426242 	 -5.561057 	 1.906758 
H 	 -5.335743 	 -5.036834 	 0.321492 
H 	 -6.779472 	 4.232920 	 4.547667 
O 	 2.901005 	 -5.527499 	 0.357441 
O 	 -0.124694 	 5.686105 	 5.296829 
O 	 4.688735 	 -6.352630 	 6.938858 
O 	 0.806965 	 -5.551682 	 -1.706393 
O 	 3.763667 	 -7.226706 	 -4.637852 
O 	 1.850669 	 6.993011 	 -6.685856 
O 	 6.122666 	 5.168664 	 -1.154832 
O 	 3.866281 	 0.628610 	 -6.719028 
O 	 6.037927 	 6.635409 	 3.510469 
O 	 5.080899 	 -1.639843 	 -5.857870 
O 	 -1.590052 	 -4.945053 	 -0.177670 
O 	 6.530931 	 1.462468 	 -6.118183 
O 	 -2.652259 	 -1.281112 	 -6.035480 
O 	 1.957982 	 1.377148 	 -4.713334 
O 	 -5.111697 	 -5.258029 	 3.787348 
O 	 1.782993 	 -5.155815 	 -6.522639 
O 	 -2.193663 	 6.529537 	 -7.269503 
O 	 4.456651 	 3.850032 	 4.255344 
O 	 7.216440 	 2.877703 	 1.749314 
O 	 -4.183653 	 2.058912 	 2.906213 
O 	 -7.253709 	 -3.509283 	 2.121462 
O 	 -3.221233 	 -0.639222 	 3.051005 
O 	 2.274638 	 6.385110 	 0.091258 
O 	 4.581589 	 -4.458278 	 -1.500264 
O 	 -3.141671 	 5.160327 	 -3.282559 
O 	 -4.364366 	 -4.832891 	 -7.128510 
O 	 -6.967162 	 -2.186089 	 7.105277 
O 	 -4.472832 	 -3.203829 	 1.199164 
O 	 2.826674 	 -1.880507 	 4.868470 
O 	 1.895172 	 3.503685 	 2.430188 
O 	 -1.010516 	 -5.924796 	 6.682717 
O 	 2.275512 	 3.923976 	 -5.444507 
O 	 0.769831 	 -6.839293 	 2.529231 
O 	 3.115577 	 1.138718 	 5.309287 
O 	 3.497315 	 5.636434 	 -2.594424 
O 	 -0.656812 	 6.159890 	 -0.379564 
O 	 4.343651 	 4.916125 	 1.189155 
O 	 -3.883819 	 6.330108 	 3.190049 
O 	 -4.352150 	 3.216954 	 -6.114818 
O 	 -0.377037 	 0.261738 	 6.205404 
O 	 -5.128802 	 -2.658211 	 5.037261 
O 	 -0.979546 	 2.478808 	 -4.622268 
O 	 5.169659 	 -1.176514 	 -3.117709 
O 	 1.464301 	 -5.545162 	 5.526231 
O 	 -4.892120 	 1.029498 	 6.777811 
O 	 -2.940026 	 -7.310242 	 0.742486 
O 	 4.623939 	 -3.628399 	 5.934529 
O 	 5.757423 	 -0.871992 	 6.148838 
O 	 -6.413166 	 4.208415 	 -0.087989 
O 	 5.411956 	 1.586933 	 -0.254156 
O 	 6.305251 	 -6.739745 	 -1.949245 
O 	 -2.483881 	 -1.578512 	 5.520285 
O 	 -0.500546 	 3.646331 	 1.199256 
O 	 -2.924632 	 -0.682307 	 -0.034277 
O 	 -4.379014 	 5.379161 	 6.018844 
O 	 -0.491110 	 -3.817007 	 -6.603753 
O 	 3.387016 	 7.077448 	 3.665673 
O 	 -2.276404 	 -3.820253 	 2.716134 
O 	 -2.284285 	 -6.179120 	 4.058032 
O 	 -3.283345 	 2.911268 	 5.424723 
O 	 -5.637735 	 -1.517579 	 -3.416296 
O 	 -3.202308 	 0.771738 	 -4.406317 
O 	 0.866619 	 -3.482544 	 3.712010 
O 	 -6.840270 	 -0.849498 	 3.401361 
O 	 6.529479 	 -4.952744 	 4.232940 
O 	 -5.964117 	 2.847394 	 -3.019688 
O 	 -5.888908 	 -4.773660 	 -2.802180 
O 	 3.547218 	 2.683313 	 -2.872027 
O 	 3.733774 	 -4.357137 	 2.743446 
O 	 -6.640594 	 6.416810 	 1.686284 
O 	 7.198646 	 -3.294035 	 -0.739979 
O 	 1.589664 	 -1.583287 	 7.232154 
O 	 6.089584 	 3.458685 	 6.905822 
O 	 -2.545180 	 -6.514054 	 -5.090415 
O 	 6.136930 	 5.339849 	 -4.307546 
O 	 6.635325 	 -7.003862 	 -5.237130 
O 	 -2.120027 	 3.192080 	 -1.461331 
O 	 -1.069914 	 6.143699 	 2.811608 
O 	 2.413558 	 -1.420398 	 -1.784932 
O 	 -5.339792 	 -7.253942 	 -3.618857 
O 	 -6.471903 	 0.671781 	 1.091345 
O 	 1.516254 	 3.421674 	 5.702786 
O 	 6.209470 	 1.787798 	 -3.517777 
O 	 -7.496842 	 -4.996704 	 -6.972189 
O 	 4.520006 	 5.042146 	 -6.509682 
O 	 0.774413 	 2.011124 	 -1.596834 
O 	 -2.651018 	 -3.618039 	 -4.726881 
O 	 -0.648922 	 0.950554 	 0.867263 
O 	 0.579275 	 -2.523399 	 0.662141 
O 	 0.711959 	 0.711659 	 3.149088 
O 	 -4.809513 	 6.362548 	 -1.058206 
O 	 -0.623143 	 -0.710518 	 -1.385986 
O 	 -0.121978 	 5.531034 	 -5.152171 
O 	 7.044038 	 -7.079433 	 5.775017 
O 	 3.134134 	 0.205017 	 0.469650 
O 	 0.228216 	 6.909657 	 -2.995196 
O 	 -3.435852 	 -3.385303 	 -1.895615 
O 	 0.074704 	 -0.730480 	 -4.927391 
O 	 -3.877913 	 1.132289 	 -1.832996 
O 	 -7.434062 	 0.876736 	 5.495117 
O 	 -6.108342 	 -0.292802 	 -5.899481 
O 	 -6.975089 	 5.822412 	 -7.320483 
O 	 6.781508 	 -3.864751 	 -3.920535 
O 	 -5.920804 	 4.966624 	 -4.718507 
O 	 7.222085 	 -0.633286 	 -1.003631 
O 	 -3.850465 	 4.143177 	 0.892731 
O 	 3.713905 	 -4.552779 	 -4.627012 
O 	 0.026399 	 -3.482218 	 -3.536183 
O 	 -1.131999 	 2.947659 	 7.057354 
O 	 -5.334386 	 -5.810199 	 0.936292 
O 	 -6.794810 	 3.274789 	 4.272087 
K 	 3.038299 	 5.939913 	 5.911514 
