333
conformation = 40
H 	 2.934033 	 -6.408656 	 0.482991 
H 	 2.826807 	 -5.102827 	 1.241198 
H 	 -0.629027 	 5.500221 	 5.967201 
H 	 0.584058 	 5.023907 	 5.085428 
H 	 4.684929 	 -6.408721 	 -6.919301 
H 	 4.450973 	 -5.336078 	 6.879942 
H 	 0.210900 	 -5.209237 	 -1.066167 
H 	 1.740425 	 -5.494054 	 -1.131187 
H 	 3.833732 	 7.168945 	 -3.895175 
H 	 3.321541 	 7.200534 	 -5.362338 
H 	 1.119455 	 6.658042 	 -6.389220 
H 	 1.651564 	 -6.873444 	 -6.636849 
H 	 6.963569 	 4.962313 	 -0.695028 
H 	 6.419809 	 6.270681 	 -1.233323 
H 	 3.288002 	 0.826785 	 -6.006169 
H 	 4.871320 	 1.048748 	 -6.543530 
H 	 6.757230 	 6.859673 	 2.782560 
H 	 6.373207 	 -7.468271 	 4.166411 
H 	 4.799599 	 -0.838400 	 -6.403190 
H 	 6.058526 	 -1.762386 	 -6.124566 
H 	 -2.115811 	 -5.528024 	 0.060694 
H 	 -2.153755 	 -4.247284 	 -0.777027 
H 	 7.419891 	 1.023001 	 -6.128228 
H 	 6.537049 	 2.300929 	 -6.835510 
H 	 -2.954569 	 -1.058167 	 -6.976937 
H 	 -2.889834 	 -0.419600 	 -5.515363 
H 	 1.369807 	 0.709778 	 -4.316122 
H 	 2.695952 	 1.727745 	 -4.066042 
H 	 -4.050636 	 -5.497768 	 3.843228 
H 	 -5.011260 	 -4.338654 	 4.223072 
H 	 1.060509 	 -4.530932 	 -6.393370 
H 	 2.619222 	 -4.628918 	 -6.154590 
H 	 -1.827515 	 -7.365113 	 7.197378 
H 	 -3.006847 	 6.373917 	 7.041267 
H 	 5.234363 	 4.123232 	 4.797296 
H 	 4.377178 	 2.950509 	 4.293146 
H 	 -7.144452 	 3.509663 	 0.813549 
H 	 6.383185 	 2.740093 	 1.348157 
H 	 -5.089775 	 2.451592 	 3.159885 
H 	 -3.989417 	 2.720992 	 2.092372 
H 	 7.390401 	 -3.390087 	 1.084031 
H 	 -7.337287 	 -2.481953 	 2.384057 
H 	 -3.696295 	 0.241731 	 2.813183 
H 	 -3.743191 	 -1.263504 	 2.673507 
H 	 2.690833 	 5.783819 	 0.656158 
H 	 1.324501 	 6.406839 	 0.032135 
H 	 4.082995 	 -4.470257 	 -2.375956 
H 	 4.062174 	 -4.715339 	 -0.833550 
H 	 -3.678097 	 5.136427 	 -4.075294 
H 	 -3.817458 	 5.648273 	 -2.675402 
H 	 -4.348606 	 -5.619823 	 -6.738474 
H 	 -5.154636 	 -4.609086 	 7.308323 
H 	 -6.231692 	 -2.147493 	 6.378022 
H 	 -7.008651 	 -3.051272 	 7.224243 
H 	 -3.862431 	 -3.370908 	 1.959143 
H 	 -5.319087 	 -3.034158 	 1.486602 
H 	 2.125198 	 -1.844917 	 4.235045 
H 	 2.494333 	 -1.808769 	 5.728672 
H 	 2.778529 	 3.437455 	 1.927567 
H 	 2.119263 	 4.213520 	 3.155990 
H 	 -0.996063 	 -5.060979 	 7.262371 
H 	 -0.087486 	 -5.718038 	 6.228275 
H 	 2.081028 	 3.095317 	 -5.295360 
H 	 1.611583 	 4.568362 	 -5.243996 
H 	 0.952289 	 -6.709491 	 3.465980 
H 	 0.310579 	 -7.488194 	 2.343495 
H 	 2.711295 	 0.516256 	 4.824321 
H 	 3.466773 	 0.907810 	 6.243011 
H 	 4.345527 	 5.410118 	 -2.217079 
H 	 3.006028 	 5.909311 	 -1.816624 
H 	 -0.706386 	 5.310978 	 0.049381 
H 	 -1.456338 	 6.726481 	 -0.204459 
H 	 4.939820 	 4.698685 	 1.855880 
H 	 5.018024 	 5.292399 	 0.467344 
H 	 -4.772057 	 6.542305 	 2.891928 
H 	 -3.654066 	 5.538228 	 2.721999 
H 	 -4.132678 	 2.549697 	 -5.491674 
H 	 -4.474147 	 2.746868 	 -6.914559 
H 	 -0.497820 	 1.258696 	 6.618124 
H 	 -1.166824 	 0.034785 	 6.034290 
H 	 -5.419300 	 -1.750160 	 4.390196 
H 	 -4.220650 	 -2.394425 	 5.271826 
H 	 -0.740508 	 3.584302 	 -4.668313 
H 	 -0.076562 	 2.170289 	 -4.395584 
H 	 5.278696 	 -1.191499 	 -4.183506 
H 	 5.617598 	 -1.795929 	 -2.681804 
H 	 1.957341 	 -5.242102 	 6.265813 
H 	 1.421118 	 -4.713185 	 4.866237 
H 	 -4.993459 	 0.766097 	 -7.255750 
H 	 -5.658040 	 1.066370 	 6.358668 
H 	 -2.667483 	 -7.593675 	 1.678031 
H 	 -3.718595 	 -6.700562 	 0.868442 
H 	 4.020303 	 -3.002456 	 5.303261 
H 	 5.406226 	 -3.868473 	 5.224266 
H 	 6.461346 	 -1.527543 	 6.133001 
H 	 5.008111 	 -1.241977 	 5.753435 
H 	 -4.744121 	 4.149206 	 0.440062 
H 	 -6.284767 	 3.919642 	 -1.046174 
H 	 4.591921 	 1.166154 	 -0.173070 
H 	 5.278412 	 2.329834 	 -1.033305 
H 	 7.141867 	 -6.101478 	 -2.047485 
H 	 5.608490 	 -6.081146 	 -2.086942 
H 	 -2.011347 	 -2.318923 	 5.493533 
H 	 -2.552926 	 -1.091459 	 4.593655 
H 	 -0.816760 	 2.847304 	 0.929544 
H 	 0.340683 	 3.540724 	 1.789057 
H 	 -2.192383 	 -0.130920 	 0.458625 
H 	 -3.327694 	 -1.228323 	 0.498364 
H 	 -3.984412 	 4.612334 	 5.718526 
H 	 -4.172736 	 6.029929 	 5.177079 
H 	 -0.159290 	 -2.771794 	 -6.742924 
H 	 -1.296210 	 -3.647771 	 -6.051532 
H 	 2.984798 	 -7.179908 	 2.962257 
H 	 4.361389 	 6.907126 	 3.210731 
H 	 -2.072872 	 -4.683516 	 2.935185 
H 	 -1.653745 	 -3.667074 	 1.841200 
H 	 -2.518360 	 -7.023090 	 3.830733 
H 	 -1.931483 	 -6.048259 	 4.972889 
H 	 -3.516817 	 2.653631 	 4.437201 
H 	 -3.729159 	 2.345935 	 5.946432 
H 	 -5.891607 	 -0.978561 	 -2.683322 
H 	 -6.049510 	 -2.350120 	 -3.593330 
H 	 -2.409034 	 1.493009 	 -4.464283 
H 	 -3.443207 	 0.833523 	 -3.471840 
H 	 1.038471 	 -3.353573 	 2.662764 
H 	 -0.004101 	 -3.408941 	 3.844608 
H 	 -7.347737 	 -0.262127 	 4.005375 
H 	 -6.876507 	 -0.281646 	 2.497396 
H 	 7.140128 	 -4.831887 	 3.295126 
H 	 7.077594 	 -5.317347 	 4.733759 
H 	 -6.808610 	 2.551739 	 -3.062389 
H 	 -5.331722 	 2.187479 	 -2.976785 
H 	 -5.132896 	 -4.233054 	 -2.318964 
H 	 -5.557722 	 -5.570982 	 -3.108869 
H 	 4.604683 	 2.501755 	 -3.072237 
H 	 3.485212 	 3.631149 	 -3.109766 
H 	 3.446391 	 -3.702194 	 3.379787 
H 	 4.491975 	 -4.763984 	 3.044303 
H 	 -6.630756 	 5.731189 	 1.069254 
H 	 -6.501816 	 -7.569257 	 1.142195 
H 	 6.413783 	 -3.614571 	 -1.025631 
H 	 7.147378 	 -2.182235 	 -0.991131 
H 	 1.106888 	 -0.718756 	 7.137559 
H 	 2.437364 	 -1.129539 	 -7.215847 
H 	 6.929527 	 4.039830 	 6.914216 
H 	 5.422134 	 4.152465 	 7.389703 
H 	 -2.419808 	 -7.302204 	 -5.630325 
H 	 -2.834657 	 -6.710586 	 -4.276506 
H 	 7.190234 	 5.345701 	 -4.420408 
H 	 6.028239 	 5.537412 	 -3.451005 
H 	 7.151425 	 -7.125088 	 -4.462601 
H 	 5.827546 	 -7.240950 	 -4.993442 
H 	 -1.124538 	 3.102355 	 -1.617048 
H 	 -2.368794 	 3.799928 	 -2.242585 
H 	 -1.277719 	 5.479620 	 2.232405 
H 	 -0.702466 	 5.862240 	 3.618153 
H 	 3.304375 	 -1.407449 	 -2.482460 
H 	 2.572828 	 -2.041267 	 -1.176630 
H 	 -5.298613 	 7.271662 	 -2.824872 
H 	 -5.379288 	 6.975570 	 -4.250717 
H 	 -6.980300 	 1.601415 	 1.254921 
H 	 -5.593045 	 0.998196 	 1.286762 
H 	 2.068181 	 2.791100 	 5.485037 
H 	 0.940887 	 3.362578 	 6.523478 
H 	 6.436246 	 1.826691 	 -4.564408 
H 	 6.040846 	 0.985688 	 -3.348224 
H 	 -7.404134 	 -5.546738 	 7.133565 
H 	 7.067459 	 -5.467452 	 -6.307634 
H 	 3.701908 	 4.929070 	 -6.085778 
H 	 5.169098 	 5.350784 	 -5.739828 
H 	 1.663560 	 2.327703 	 -1.872053 
H 	 0.764736 	 1.126949 	 -1.881472 
H 	 -2.838997 	 -2.663461 	 -5.207501 
H 	 -3.178426 	 -4.309549 	 -5.279494 
H 	 -0.139707 	 0.771401 	 1.565867 
H 	 0.197636 	 1.231683 	 0.268546 
H 	 0.270701 	 -1.876168 	 0.000638 
H 	 0.524089 	 -3.385521 	 0.316638 
H 	 1.163770 	 1.733955 	 3.104968 
H 	 0.168521 	 0.917306 	 3.870094 
H 	 -3.983844 	 6.859059 	 -0.582956 
H 	 -5.115124 	 5.707464 	 -0.537289 
H 	 -1.543978 	 -0.786769 	 -1.297586 
H 	 -0.318326 	 -1.294483 	 -2.153581 
H 	 -0.776188 	 5.979935 	 -5.839710 
H 	 -0.064575 	 6.208757 	 -4.441449 
H 	 7.330066 	 7.289580 	 6.411652 
H 	 6.188993 	 -6.485720 	 6.168152 
H 	 2.944000 	 -0.413404 	 0.962564 
H 	 2.890841 	 0.006390 	 -0.435632 
H 	 -0.093818 	 6.612215 	 -2.259946 
H 	 0.336163 	 -6.988085 	 -2.703961 
H 	 -3.002041 	 -3.226398 	 -2.793015 
H 	 -3.545720 	 -2.433469 	 -1.552731 
H 	 0.170545 	 -1.465532 	 -4.447053 
H 	 -0.800320 	 -0.664526 	 -5.400988 
H 	 -3.220843 	 2.026079 	 -1.745062 
H 	 -3.567227 	 0.608703 	 -1.178270 
H 	 6.670192 	 0.513998 	 5.575536 
H 	 -7.454337 	 1.893576 	 5.078255 
H 	 -6.382272 	 -0.892019 	 -6.574943 
H 	 -5.971929 	 -0.641086 	 -5.037250 
H 	 -6.768138 	 6.147121 	 -6.452654 
H 	 -6.024827 	 5.848331 	 7.199556 
H 	 -7.233765 	 -4.129176 	 -3.517426 
H 	 7.204932 	 -3.749552 	 -4.950800 
H 	 -5.899039 	 4.402176 	 -4.121126 
H 	 -5.573214 	 4.580152 	 -5.595763 
H 	 6.445416 	 0.053516 	 -1.050006 
H 	 -7.240210 	 -0.148568 	 -0.223297 
H 	 -3.185693 	 4.489167 	 0.228968 
H 	 -7.195909 	 3.452187 	 3.328621 
H 	 4.522007 	 -3.873737 	 -4.767938 
H 	 4.045012 	 -5.405835 	 -4.649140 
H 	 0.413368 	 -4.100455 	 -3.074148 
H 	 -0.795309 	 -3.641566 	 -4.074044 
H 	 -1.527820 	 3.025252 	 -7.059809 
H 	 -1.797738 	 3.009009 	 6.269575 
H 	 -5.450646 	 -5.194493 	 1.739408 
H 	 -5.470086 	 -4.959310 	 0.307827 
H 	 -6.485084 	 4.228449 	 4.568138 
O 	 2.951367 	 -5.444045 	 0.325088 
O 	 -0.115849 	 5.752726 	 5.191759 
O 	 4.720342 	 -6.293133 	 6.987621 
O 	 0.912054 	 -5.455071 	 -1.681655 
O 	 3.830970 	 -7.156098 	 -4.705467 
O 	 1.916450 	 7.066339 	 -6.731807 
O 	 6.218787 	 5.299322 	 -1.231129 
O 	 3.929161 	 0.760876 	 -6.766688 
O 	 6.110343 	 6.729143 	 3.480254 
O 	 5.149922 	 -1.585556 	 -5.873448 
O 	 -1.514354 	 -4.795723 	 -0.239613 
O 	 6.589488 	 1.554720 	 -6.139471 
O 	 -2.648076 	 -1.209198 	 -6.058239 
O 	 1.993255 	 1.388515 	 -4.704962 
O 	 -5.009810 	 -5.214955 	 3.825542 
O 	 1.856259 	 -5.115686 	 -6.551843 
O 	 -2.156880 	 6.652067 	 -7.344651 
O 	 4.478106 	 3.913586 	 4.241210 
O 	 7.288600 	 2.975547 	 1.657451 
O 	 -4.195169 	 2.151173 	 2.839084 
O 	 -7.167935 	 -3.386795 	 2.035594 
O 	 -3.162735 	 -0.548070 	 2.928419 
O 	 2.288289 	 6.460936 	 0.038597 
O 	 4.624574 	 -4.327791 	 -1.584286 
O 	 -3.131441 	 5.263238 	 -3.252390 
O 	 -4.273976 	 -4.715372 	 -7.159248 
O 	 -6.939947 	 -2.091005 	 7.083689 
O 	 -4.377789 	 -3.134493 	 1.149282 
O 	 2.911306 	 -1.753843 	 4.838034 
O 	 1.950041 	 3.578097 	 2.458788 
O 	 -1.002081 	 -5.831383 	 6.664467 
O 	 2.356227 	 4.004263 	 -5.501912 
O 	 0.897535 	 -6.713680 	 2.481894 
O 	 3.208343 	 1.215287 	 5.301089 
O 	 3.476625 	 5.698524 	 -2.643450 
O 	 -0.604851 	 6.242368 	 -0.430194 
O 	 4.386852 	 5.000836 	 1.146897 
O 	 -3.861786 	 6.368699 	 3.216486 
O 	 -4.261996 	 3.312919 	 -6.175331 
O 	 -0.288703 	 0.407286 	 6.171353 
O 	 -5.151444 	 -2.525199 	 4.940898 
O 	 -0.955179 	 2.623229 	 -4.669849 
O 	 5.235962 	 -1.018940 	 -3.162026 
O 	 1.498735 	 -5.502068 	 5.439336 
O 	 -4.745403 	 1.089060 	 6.763887 
O 	 -2.890441 	 -7.236819 	 0.738476 
O 	 4.681708 	 -3.538116 	 5.829024 
O 	 5.794707 	 -0.812274 	 6.095300 
O 	 -6.340029 	 4.292155 	 -0.140863 
O 	 5.433481 	 1.671853 	 -0.311139 
O 	 6.370858 	 -6.687274 	 -1.958334 
O 	 -2.434094 	 -1.487682 	 5.500201 
O 	 -0.353704 	 3.734995 	 1.175442 
O 	 -2.897154 	 -0.592154 	 -0.091186 
O 	 -4.356340 	 5.492307 	 5.927572 
O 	 -0.478451 	 -3.716337 	 -6.621540 
O 	 3.482947 	 7.109881 	 3.614447 
O 	 -2.192664 	 -3.738226 	 2.659390 
O 	 -2.207094 	 -6.090507 	 4.013701 
O 	 -3.266182 	 2.981558 	 5.365561 
O 	 -5.624405 	 -1.467916 	 -3.505011 
O 	 -3.136858 	 0.823581 	 -4.439720 
O 	 0.955722 	 -3.348439 	 3.636276 
O 	 -6.786386 	 -0.810126 	 3.349699 
O 	 6.575402 	 -4.814467 	 4.109963 
O 	 -5.931738 	 2.963651 	 -3.079074 
O 	 -5.854278 	 -4.649955 	 -2.841914 
O 	 3.612294 	 2.679019 	 -2.972621 
O 	 3.759579 	 -4.257965 	 2.657189 
O 	 -6.656444 	 6.506833 	 1.659465 
O 	 7.222227 	 -3.175358 	 -0.768326 
O 	 1.679293 	 -1.498214 	 7.190296 
O 	 6.070273 	 3.560405 	 6.848925 
O 	 -2.436278 	 -6.453978 	 -5.149262 
O 	 6.194209 	 5.413009 	 -4.384579 
O 	 6.688691 	 -6.888812 	 -5.295182 
O 	 -2.075077 	 3.298318 	 -1.453083 
O 	 -0.995273 	 6.205022 	 2.775543 
O 	 2.524598 	 -1.346656 	 -1.841628 
O 	 -5.252517 	 -7.174664 	 -3.665796 
O 	 -6.493853 	 0.748985 	 1.025900 
O 	 1.535905 	 3.565994 	 5.745592 
O 	 6.322826 	 1.899064 	 -3.535472 
O 	 7.436056 	 -4.871086 	 -7.030234 
O 	 4.552569 	 5.106467 	 -6.552755 
O 	 0.782643 	 2.076539 	 -1.658727 
O 	 -2.642592 	 -3.588023 	 -4.845141 
O 	 -0.650067 	 1.041731 	 0.745725 
O 	 0.678811 	 -2.493320 	 0.632583 
O 	 0.804310 	 0.807991 	 3.097547 
O 	 -4.775128 	 6.481660 	 -1.066892 
O 	 -0.559251 	 -0.698495 	 -1.437601 
O 	 -0.106769 	 5.621934 	 -5.228701 
O 	 7.011340 	 -6.964740 	 5.753835 
O 	 3.205681 	 0.313812 	 0.404365 
O 	 0.320685 	 6.966667 	 -3.051931 
O 	 -3.329667 	 -3.293865 	 -1.895439 
O 	 0.102286 	 -0.654404 	 -5.009729 
O 	 -3.832812 	 1.270074 	 -1.869289 
O 	 -7.373989 	 0.985038 	 5.459098 
O 	 -6.106875 	 -0.204543 	 -5.945685 
O 	 -6.919217 	 5.902686 	 7.508375 
O 	 6.831976 	 -3.770058 	 -4.036996 
O 	 -5.855603 	 5.104248 	 -4.801415 
O 	 7.223126 	 -0.507687 	 -1.001711 
O 	 -3.829912 	 4.207461 	 0.914687 
O 	 3.736515 	 -4.463040 	 -4.676391 
O 	 0.075054 	 -3.359151 	 -3.641060 
O 	 -1.074938 	 3.034498 	 7.004587 
O 	 -5.300574 	 -5.727444 	 0.911673 
O 	 -6.698254 	 3.339949 	 4.170761 
K 	 3.102424 	 6.039294 	 5.852888 
