333
conformation = 47
H 	 2.837030 	 -6.549020 	 0.470032 
H 	 2.848899 	 -5.331237 	 1.273632 
H 	 -0.710529 	 5.379074 	 5.985182 
H 	 0.475699 	 4.909377 	 5.091751 
H 	 4.563110 	 -6.577465 	 -7.022923 
H 	 4.481213 	 -5.468012 	 6.816397 
H 	 0.047435 	 -5.344736 	 -1.145670 
H 	 1.587491 	 -5.717570 	 -1.103929 
H 	 3.708887 	 7.043836 	 -3.905541 
H 	 3.238078 	 7.116035 	 -5.350000 
H 	 1.060746 	 6.437658 	 -6.374828 
H 	 1.696988 	 -6.985067 	 -6.699168 
H 	 7.012553 	 4.844686 	 -0.733646 
H 	 6.271859 	 6.111743 	 -1.262425 
H 	 3.299780 	 0.837536 	 -6.010476 
H 	 4.794548 	 0.807689 	 -6.512646 
H 	 6.742920 	 6.601935 	 2.749828 
H 	 6.347438 	 7.089073 	 4.258556 
H 	 4.767264 	 -0.916991 	 -6.398502 
H 	 6.010164 	 -1.861473 	 -6.203951 
H 	 -2.099548 	 -5.734107 	 0.037921 
H 	 -2.141287 	 -4.424742 	 -0.821612 
H 	 7.370156 	 0.887773 	 -6.236321 
H 	 6.509141 	 2.158840 	 -6.779639 
H 	 -2.993130 	 -1.220072 	 -6.989086 
H 	 -3.036449 	 -0.546337 	 -5.546786 
H 	 1.403415 	 0.587319 	 -4.389779 
H 	 2.619114 	 1.555732 	 -4.056548 
H 	 -4.148535 	 -5.563882 	 3.873385 
H 	 -5.075186 	 -4.372292 	 4.089659 
H 	 1.009911 	 -4.724111 	 -6.244941 
H 	 2.550521 	 -4.772158 	 -6.123601 
H 	 -1.853867 	 -7.600728 	 7.118768 
H 	 -2.987785 	 6.372805 	 7.061922 
H 	 5.252575 	 3.987391 	 4.776394 
H 	 4.439353 	 2.812880 	 4.357411 
H 	 -7.222130 	 3.399753 	 0.971791 
H 	 6.312151 	 2.727734 	 1.316345 
H 	 -5.054793 	 2.374005 	 3.183434 
H 	 -3.917712 	 2.627348 	 2.076714 
H 	 7.313475 	 -3.484665 	 1.146051 
H 	 7.331731 	 -2.699985 	 2.441308 
H 	 -3.657106 	 0.216644 	 2.856418 
H 	 -3.867672 	 -1.387506 	 2.642411 
H 	 2.594570 	 5.590811 	 0.599970 
H 	 1.277779 	 6.232032 	 0.102199 
H 	 4.021406 	 -4.388538 	 -2.382848 
H 	 4.018127 	 -4.817782 	 -0.839705 
H 	 -3.742611 	 4.857182 	 -4.016957 
H 	 -3.812942 	 5.523376 	 -2.646593 
H 	 -4.380452 	 -5.691874 	 -6.704784 
H 	 -5.223058 	 -4.690369 	 7.376168 
H 	 -6.237711 	 -2.263484 	 6.407282 
H 	 -7.139050 	 -3.179342 	 7.329841 
H 	 -3.796539 	 -3.536837 	 1.852090 
H 	 -5.351882 	 -3.248997 	 1.514968 
H 	 2.059932 	 -2.043945 	 4.284593 
H 	 2.450268 	 -1.956305 	 5.763740 
H 	 2.740842 	 3.317274 	 1.974218 
H 	 2.169132 	 4.066891 	 3.141832 
H 	 -1.022197 	 -5.157185 	 7.250813 
H 	 -0.128564 	 -5.844103 	 6.283945 
H 	 1.978563 	 2.986800 	 -5.188152 
H 	 1.568613 	 4.480565 	 -5.220284 
H 	 0.960527 	 -6.855806 	 3.437183 
H 	 0.176257 	 -7.611872 	 2.324862 
H 	 2.658510 	 0.377610 	 4.823705 
H 	 3.386391 	 0.779777 	 6.140656 
H 	 4.300356 	 5.302749 	 -2.270518 
H 	 2.991512 	 5.907784 	 -1.812880 
H 	 -0.621753 	 5.311599 	 0.063126 
H 	 -1.404850 	 6.616622 	 -0.138628 
H 	 4.897429 	 4.551150 	 1.907477 
H 	 4.905142 	 5.071520 	 0.349523 
H 	 -4.833141 	 6.452773 	 2.930871 
H 	 -3.792820 	 5.440407 	 2.646267 
H 	 -3.998596 	 2.453118 	 -5.638811 
H 	 -4.521599 	 2.692913 	 -7.027965 
H 	 -0.634820 	 0.991382 	 6.754520 
H 	 -1.160641 	 -0.336394 	 6.002336 
H 	 -5.406254 	 -1.943055 	 4.352750 
H 	 -4.297171 	 -2.391680 	 5.304899 
H 	 -0.771148 	 3.421038 	 -4.743488 
H 	 -0.150135 	 2.085781 	 -4.479511 
H 	 5.192414 	 -1.569076 	 -4.059010 
H 	 5.629121 	 -1.901862 	 -2.688596 
H 	 1.891161 	 -5.466689 	 6.337618 
H 	 1.474700 	 -4.788563 	 4.918469 
H 	 -5.115602 	 0.589107 	 -7.260928 
H 	 -5.690035 	 0.928906 	 6.220441 
H 	 -2.674248 	 7.036942 	 1.479697 
H 	 -3.756665 	 -6.819739 	 0.872283 
H 	 4.117306 	 -3.242733 	 5.141961 
H 	 5.396072 	 -3.988396 	 5.357109 
H 	 6.334985 	 -1.725759 	 6.196983 
H 	 4.958769 	 -1.349412 	 5.686629 
H 	 -4.777767 	 4.010185 	 0.514731 
H 	 -6.345865 	 3.758080 	 -1.028104 
H 	 4.487956 	 1.225381 	 -0.054779 
H 	 5.334110 	 2.207053 	 -0.999769 
H 	 7.111549 	 -6.234848 	 -2.031549 
H 	 5.606419 	 -6.138601 	 -2.118144 
H 	 -1.910048 	 -2.444560 	 5.611145 
H 	 -2.472114 	 -1.256686 	 4.557232 
H 	 -0.697048 	 2.687905 	 0.994265 
H 	 0.373755 	 3.438526 	 1.728506 
H 	 -2.217703 	 -0.261223 	 0.395105 
H 	 -3.340268 	 -1.457654 	 0.447372 
H 	 -3.901628 	 4.474099 	 5.790312 
H 	 -4.263796 	 5.898671 	 5.098621 
H 	 -0.301764 	 -2.945038 	 -6.882586 
H 	 -1.281687 	 -3.820612 	 -6.029770 
H 	 2.861521 	 -7.388803 	 3.036013 
H 	 4.320254 	 6.834959 	 3.261692 
H 	 -2.074362 	 -4.759538 	 3.064398 
H 	 -1.747701 	 -3.894933 	 1.834692 
H 	 -2.346324 	 -7.162155 	 3.800108 
H 	 -1.974909 	 -6.153697 	 4.940677 
H 	 -3.527216 	 2.497351 	 4.502266 
H 	 -3.771195 	 2.232195 	 5.991482 
H 	 -6.020223 	 -1.134118 	 -2.715438 
H 	 -6.221351 	 -2.365260 	 -3.568709 
H 	 -2.421522 	 1.330557 	 -4.394332 
H 	 -3.399705 	 0.714912 	 -3.469332 
H 	 0.943735 	 -3.309347 	 2.683521 
H 	 -0.045334 	 -3.461871 	 3.883463 
H 	 -7.318450 	 -0.433999 	 4.015119 
H 	 -6.969743 	 -0.420130 	 2.528364 
H 	 7.084576 	 -4.915000 	 3.351824 
H 	 7.062158 	 -5.580513 	 4.751061 
H 	 -6.901580 	 2.441452 	 -3.032967 
H 	 -5.430358 	 2.031869 	 -2.859648 
H 	 -5.259403 	 -4.305554 	 -2.298296 
H 	 -5.627986 	 -5.699898 	 -3.096580 
H 	 4.474752 	 2.336223 	 -3.151706 
H 	 3.373066 	 3.556761 	 -3.099499 
H 	 3.391026 	 -3.836066 	 3.400298 
H 	 4.530248 	 -4.816033 	 3.064639 
H 	 -6.480303 	 5.627937 	 1.011810 
H 	 -6.510845 	 7.153782 	 1.094078 
H 	 6.315502 	 -3.732729 	 -1.046795 
H 	 7.142378 	 -2.348753 	 -0.846906 
H 	 1.064108 	 -0.789621 	 7.066439 
H 	 2.326393 	 -1.273270 	 -7.155546 
H 	 6.907150 	 3.863608 	 6.952135 
H 	 5.494400 	 3.973656 	 7.441795 
H 	 -2.502359 	 -7.380120 	 -5.709282 
H 	 -2.952057 	 -6.794463 	 -4.324634 
H 	 7.091411 	 5.203969 	 -4.534184 
H 	 6.032134 	 5.383726 	 -3.394652 
H 	 7.143145 	 -7.126709 	 -4.456717 
H 	 5.696206 	 -7.208724 	 -4.997497 
H 	 -1.157275 	 2.964345 	 -1.642725 
H 	 -2.433978 	 3.673309 	 -2.267189 
H 	 -1.197911 	 5.302746 	 2.157127 
H 	 -0.839332 	 5.731349 	 3.722158 
H 	 3.295794 	 -1.622350 	 -2.275740 
H 	 2.490415 	 -2.243394 	 -1.230218 
H 	 -5.291982 	 7.016843 	 -2.830508 
H 	 -5.542422 	 6.928658 	 -4.380643 
H 	 -7.043893 	 1.445789 	 1.286004 
H 	 -5.590534 	 0.857721 	 1.282709 
H 	 2.058212 	 2.588142 	 5.524581 
H 	 0.856274 	 3.147995 	 6.361150 
H 	 6.418738 	 1.816700 	 -4.515447 
H 	 6.073530 	 0.780957 	 -3.408271 
H 	 -7.381288 	 -5.506606 	 7.045807 
H 	 6.867000 	 -5.625045 	 -6.447620 
H 	 3.694697 	 4.763000 	 -6.048945 
H 	 5.169546 	 5.303422 	 -5.959521 
H 	 1.663911 	 2.204891 	 -2.032816 
H 	 0.669173 	 1.004129 	 -1.879568 
H 	 -2.915288 	 -2.840999 	 -5.232894 
H 	 -3.230389 	 -4.333656 	 -5.247670 
H 	 -0.274321 	 0.589869 	 1.634243 
H 	 0.125932 	 1.093324 	 0.254388 
H 	 0.261636 	 -1.891405 	 0.001958 
H 	 0.474375 	 -3.438455 	 0.122800 
H 	 1.072001 	 1.584493 	 3.089391 
H 	 0.092904 	 0.659166 	 3.827539 
H 	 -4.132306 	 6.692882 	 -0.510241 
H 	 -5.139692 	 5.521839 	 -0.648431 
H 	 -1.564591 	 -0.766559 	 -1.245448 
H 	 -0.404317 	 -1.542720 	 -2.048023 
H 	 -0.831271 	 5.841487 	 -5.803289 
H 	 -0.113777 	 6.151956 	 -4.409746 
H 	 7.261622 	 7.159136 	 6.478061 
H 	 6.200643 	 -6.709798 	 6.110539 
H 	 2.865903 	 -0.520832 	 1.075964 
H 	 2.903833 	 -0.184375 	 -0.525607 
H 	 -0.168527 	 6.305511 	 -2.309535 
H 	 0.385483 	 -7.152792 	 -2.690729 
H 	 -3.233297 	 -3.373527 	 -2.916928 
H 	 -3.518404 	 -2.469066 	 -1.692328 
H 	 0.087257 	 -1.619192 	 -4.488785 
H 	 -0.814024 	 -0.803731 	 -5.397777 
H 	 -3.246249 	 1.888199 	 -1.743145 
H 	 -3.627114 	 0.432583 	 -1.205898 
H 	 6.612222 	 0.362168 	 5.696032 
H 	 7.358166 	 1.743021 	 5.058269 
H 	 -6.435882 	 -1.099689 	 -6.529399 
H 	 -6.053969 	 -0.724679 	 -5.055968 
H 	 -6.843148 	 6.142188 	 -6.481224 
H 	 -6.010083 	 5.661432 	 7.184898 
H 	 -7.366470 	 -4.269185 	 -3.531255 
H 	 7.086407 	 -3.816697 	 -4.917333 
H 	 -6.034001 	 4.221651 	 -4.081380 
H 	 -5.582422 	 4.414397 	 -5.538956 
H 	 6.353816 	 -0.107843 	 -0.974822 
H 	 -7.197024 	 -0.390887 	 -0.184297 
H 	 -3.236539 	 4.265009 	 0.155741 
H 	 -7.210734 	 3.255322 	 3.300236 
H 	 4.454172 	 -4.004820 	 -4.725984 
H 	 3.996375 	 -5.534517 	 -4.675400 
H 	 0.323871 	 -4.299055 	 -3.123933 
H 	 -0.805475 	 -3.668971 	 -4.028249 
H 	 -1.697126 	 2.944299 	 -7.069266 
H 	 -1.691063 	 2.934451 	 6.221642 
H 	 -5.487083 	 -5.457157 	 1.801731 
H 	 -5.434942 	 -5.098905 	 0.311573 
H 	 -6.656222 	 4.104789 	 4.542101 
O 	 2.905311 	 -5.567556 	 0.312301 
O 	 -0.138816 	 5.627883 	 5.221669 
O 	 4.684168 	 -6.411277 	 6.938142 
O 	 0.839896 	 -5.593976 	 -1.719240 
O 	 3.772194 	 -7.276493 	 -4.694193 
O 	 1.860644 	 6.944358 	 -6.731953 
O 	 6.144432 	 5.141616 	 -1.217902 
O 	 3.876990 	 0.606271 	 -6.764340 
O 	 6.052446 	 6.597361 	 3.476219 
O 	 5.089306 	 -1.697114 	 -5.892176 
O 	 -1.578729 	 -4.964065 	 -0.231437 
O 	 6.538235 	 1.421489 	 -6.155690 
O 	 -2.670582 	 -1.337110 	 -6.070439 
O 	 1.950925 	 1.294582 	 -4.733496 
O 	 -5.083679 	 -5.328383 	 3.780609 
O 	 1.794906 	 -5.223952 	 -6.559812 
O 	 -2.200580 	 6.498636 	 -7.328694 
O 	 4.440080 	 3.796879 	 4.221736 
O 	 7.234828 	 2.835180 	 1.680259 
O 	 -4.212200 	 2.013892 	 2.853426 
O 	 -7.233432 	 -3.540753 	 2.058173 
O 	 -3.212467 	 -0.682991 	 2.969379 
O 	 2.261969 	 6.335156 	 0.043062 
O 	 4.580017 	 -4.485699 	 -1.559017 
O 	 -3.155891 	 5.122094 	 -3.294877 
O 	 -4.346842 	 -4.868461 	 -7.166095 
O 	 -6.976272 	 -2.222927 	 7.068695 
O 	 -4.451898 	 -3.264472 	 1.151969 
O 	 2.844121 	 -1.908893 	 4.828616 
O 	 1.897150 	 3.451251 	 2.413726 
O 	 -1.027056 	 -5.969891 	 6.649402 
O 	 2.296185 	 3.872837 	 -5.498135 
O 	 0.805681 	 -6.869223 	 2.484217 
O 	 3.139256 	 1.081845 	 5.286136 
O 	 3.469546 	 5.576767 	 -2.646659 
O 	 -0.657839 	 6.109674 	 -0.424378 
O 	 4.343405 	 4.871705 	 1.144190 
O 	 -3.887703 	 6.263761 	 3.179221 
O 	 -4.331105 	 3.178704 	 -6.161145 
O 	 -0.355264 	 0.245012 	 6.164896 
O 	 -5.161204 	 -2.684879 	 4.966488 
O 	 -0.986022 	 2.454558 	 -4.667386 
O 	 5.180443 	 -1.187370 	 -3.164798 
O 	 1.459970 	 -5.608643 	 5.459763 
O 	 -4.841778 	 0.971348 	 6.744172 
O 	 -2.937648 	 -7.365489 	 0.723787 
O 	 4.628484 	 -3.672094 	 5.860701 
O 	 5.759409 	 -0.925413 	 6.101304 
O 	 -6.399534 	 4.158936 	 -0.138062 
O 	 5.399813 	 1.542107 	 -0.308652 
O 	 6.313579 	 -6.802018 	 -1.976355 
O 	 -2.483606 	 -1.620621 	 5.481003 
O 	 -0.455232 	 3.597032 	 1.158870 
O 	 -2.928995 	 -0.725019 	 -0.084628 
O 	 -4.390318 	 5.342133 	 5.952920 
O 	 -0.503285 	 -3.857000 	 -6.635720 
O 	 3.410604 	 7.009356 	 3.613173 
O 	 -2.261873 	 -3.868512 	 2.664045 
O 	 -2.267278 	 -6.224599 	 4.010679 
O 	 -3.295690 	 2.859129 	 5.367520 
O 	 -5.652477 	 -1.580648 	 -3.481952 
O 	 -3.195012 	 0.704154 	 -4.449044 
O 	 0.886594 	 -3.508492 	 3.653347 
O 	 -6.836883 	 -0.911586 	 3.354050 
O 	 6.528203 	 -4.971624 	 4.146445 
O 	 -5.963328 	 2.818458 	 -3.075317 
O 	 -5.888691 	 -4.805328 	 -2.846164 
O 	 3.561285 	 2.596270 	 -2.947206 
O 	 3.722287 	 -4.397203 	 2.676127 
O 	 -6.671694 	 6.374052 	 1.651087 
O 	 7.188671 	 -3.318117 	 -0.780803 
O 	 1.611097 	 -1.635710 	 7.185831 
O 	 6.056481 	 3.421402 	 6.854916 
O 	 -2.515467 	 -6.574809 	 -5.140475 
O 	 6.145075 	 5.288438 	 -4.371454 
O 	 6.642008 	 -7.036864 	 -5.289839 
O 	 -2.119045 	 3.154395 	 -1.480195 
O 	 -1.053521 	 6.090766 	 2.771789 
O 	 2.441290 	 -1.469152 	 -1.838399 
O 	 -5.318534 	 -7.295711 	 -3.667203 
O 	 -6.504653 	 0.622878 	 1.033497 
O 	 1.502016 	 3.403316 	 5.700872 
O 	 6.243338 	 1.755858 	 -3.556914 
O 	 -7.503627 	 -5.027364 	 -7.024127 
O 	 4.517276 	 4.984273 	 -6.547355 
O 	 0.751569 	 1.955832 	 -1.648050 
O 	 -2.668593 	 -3.691983 	 -4.809533 
O 	 -0.670979 	 0.907773 	 0.783353 
O 	 0.604707 	 -2.594909 	 0.625900 
O 	 0.734474 	 0.671296 	 3.098973 
O 	 -4.814233 	 6.332405 	 -1.082401 
O 	 -0.622990 	 -0.788849 	 -1.430821 
O 	 -0.133960 	 5.484415 	 -5.214859 
O 	 7.004727 	 -7.111686 	 5.735041 
O 	 3.150594 	 0.171102 	 0.417376 
O 	 0.252849 	 6.854446 	 -3.049299 
O 	 -3.407051 	 -3.433153 	 -1.914951 
O 	 0.066382 	 -0.780099 	 -4.992439 
O 	 -3.877410 	 1.108307 	 -1.872153 
O 	 -7.429318 	 0.841925 	 5.453550 
O 	 -6.126293 	 -0.337324 	 -5.940810 
O 	 -6.978199 	 5.772477 	 7.522843 
O 	 6.790414 	 -3.912125 	 -3.996735 
O 	 -5.909079 	 4.945618 	 -4.785606 
O 	 7.201850 	 -0.662491 	 -1.030254 
O 	 -3.863796 	 4.086789 	 0.871804 
O 	 3.706153 	 -4.600861 	 -4.675893 
O 	 0.024343 	 -3.517725 	 -3.612322 
O 	 -1.130904 	 2.902314 	 7.001416 
O 	 -5.337721 	 -5.853703 	 0.897827 
O 	 -6.771472 	 3.222193 	 4.201434 
K 	 3.047214 	 5.899904 	 5.857546 
