333
conformation = 67
H 	 2.838811 	 -6.427153 	 0.329883 
H 	 3.167105 	 -5.115522 	 1.221745 
H 	 -0.660200 	 5.678138 	 6.082292 
H 	 0.360064 	 4.870708 	 5.266756 
H 	 4.421382 	 -6.421016 	 -7.125930 
H 	 4.557013 	 -5.301275 	 6.685311 
H 	 -0.112870 	 -5.441382 	 -1.338487 
H 	 1.378389 	 -5.564084 	 -0.940732 
H 	 3.665739 	 7.134684 	 -3.872824 
H 	 3.073794 	 -7.337755 	 -5.295514 
H 	 1.167024 	 6.706694 	 -6.132546 
H 	 1.657530 	 -6.855040 	 -6.577708 
H 	 7.108218 	 4.994935 	 -0.892658 
H 	 6.130062 	 6.227961 	 -1.225959 
H 	 3.328124 	 1.229909 	 -6.128042 
H 	 4.838654 	 1.053761 	 -6.594038 
H 	 6.797493 	 6.517489 	 2.881963 
H 	 6.626822 	 6.833827 	 4.344640 
H 	 4.579132 	 -0.826097 	 -6.266548 
H 	 5.905096 	 -1.612791 	 -6.426345 
H 	 -1.947051 	 -5.795087 	 0.019539 
H 	 -2.207002 	 -4.527633 	 -0.833384 
H 	 7.352768 	 0.980531 	 -6.330779 
H 	 6.525265 	 2.222367 	 -6.873332 
H 	 -2.956617 	 -1.147725 	 -6.976601 
H 	 -3.081448 	 -0.480681 	 -5.490084 
H 	 1.599839 	 0.619907 	 -4.813911 
H 	 2.455664 	 1.684187 	 -3.880204 
H 	 -4.201965 	 -5.417472 	 4.010564 
H 	 -5.165012 	 -4.186486 	 3.885929 
H 	 0.954488 	 -4.690615 	 -6.161921 
H 	 2.520370 	 -4.823571 	 -5.841381 
H 	 -1.587343 	 -7.556205 	 7.246944 
H 	 -2.969998 	 6.411364 	 7.135593 
H 	 5.344204 	 4.282453 	 4.640620 
H 	 4.340028 	 3.046818 	 4.549433 
H 	 -7.103510 	 3.493010 	 1.081397 
H 	 6.340594 	 2.948956 	 1.327023 
H 	 -4.918787 	 2.599006 	 3.243485 
H 	 -3.711864 	 2.840096 	 2.251483 
H 	 7.354344 	 -3.403197 	 1.217087 
H 	 7.247653 	 -2.748359 	 2.670238 
H 	 -3.465252 	 0.383198 	 3.101733 
H 	 -3.902577 	 -1.010543 	 2.636409 
H 	 2.824545 	 5.775823 	 0.660026 
H 	 1.378460 	 6.509839 	 0.147256 
H 	 4.127108 	 -3.891239 	 -2.129233 
H 	 3.932978 	 -4.734415 	 -0.822216 
H 	 -3.813005 	 4.744887 	 -3.787221 
H 	 -3.511750 	 5.624179 	 -2.538913 
H 	 -4.309783 	 -5.545079 	 -6.534365 
H 	 -5.322721 	 -4.603479 	 -7.100785 
H 	 -6.267469 	 -2.406555 	 6.426948 
H 	 -7.134941 	 -2.946745 	 7.484482 
H 	 -3.797227 	 -3.600838 	 1.655981 
H 	 -5.219290 	 -3.236638 	 1.798192 
H 	 2.062997 	 -2.229289 	 4.375469 
H 	 2.515170 	 -1.754430 	 5.824946 
H 	 2.748053 	 3.490772 	 1.779457 
H 	 2.251923 	 4.071129 	 3.172594 
H 	 -1.001501 	 -5.045873 	 7.239986 
H 	 -0.045874 	 -5.819017 	 6.245661 
H 	 1.961069 	 3.184092 	 -5.128883 
H 	 1.603135 	 4.673097 	 -5.308118 
H 	 0.893388 	 -6.608812 	 3.492072 
H 	 0.065708 	 -7.460994 	 2.571740 
H 	 2.796827 	 0.394971 	 4.878344 
H 	 3.451025 	 0.991306 	 6.192592 
H 	 4.459903 	 5.530794 	 -2.144451 
H 	 3.107370 	 6.154893 	 -1.889802 
H 	 -0.649725 	 5.347563 	 0.135288 
H 	 -1.232761 	 6.824845 	 0.126726 
H 	 4.951432 	 4.969523 	 1.934964 
H 	 4.999834 	 4.830358 	 0.442159 
H 	 -4.734443 	 6.840257 	 2.989863 
H 	 -3.803958 	 5.668999 	 2.524845 
H 	 -3.763044 	 2.578590 	 -5.753449 
H 	 -4.567219 	 3.017411 	 -6.981207 
H 	 -0.836639 	 0.840122 	 6.839776 
H 	 -0.956281 	 -0.465721 	 6.145695 
H 	 -5.531493 	 -2.077898 	 4.360734 
H 	 -4.214768 	 -2.079136 	 5.310346 
H 	 -0.811584 	 3.506988 	 -4.832115 
H 	 0.039089 	 2.152913 	 -4.646468 
H 	 5.057882 	 -1.596138 	 -3.968925 
H 	 5.941421 	 -1.556002 	 -2.589558 
H 	 1.882296 	 -5.289349 	 6.481658 
H 	 1.788940 	 -4.597242 	 5.130586 
H 	 -5.222488 	 0.665298 	 7.519802 
H 	 -5.729676 	 1.040277 	 6.118358 
H 	 -2.766548 	 7.085823 	 1.508649 
H 	 -3.646328 	 -6.657754 	 1.080857 
H 	 4.189017 	 -3.264970 	 5.204965 
H 	 5.540607 	 -3.866882 	 5.705002 
H 	 6.292767 	 -1.505796 	 6.453428 
H 	 5.023785 	 -1.008502 	 5.629270 
H 	 -4.718674 	 4.194357 	 0.493976 
H 	 -6.215254 	 3.616543 	 -0.767117 
H 	 4.627963 	 1.757534 	 0.165444 
H 	 5.429545 	 2.347505 	 -0.985494 
H 	 7.219619 	 -6.232096 	 -1.819459 
H 	 5.726883 	 -5.863760 	 -1.872822 
H 	 -1.786521 	 -2.165678 	 5.664304 
H 	 -2.471166 	 -1.386937 	 4.497833 
H 	 -0.636665 	 2.743973 	 1.066356 
H 	 0.396557 	 3.925471 	 1.313046 
H 	 -2.250792 	 -0.207911 	 0.594397 
H 	 -3.105881 	 -1.399059 	 0.418468 
H 	 -3.801577 	 4.637334 	 5.940924 
H 	 -4.366938 	 5.741878 	 5.167007 
H 	 -0.276178 	 -2.809929 	 -6.993249 
H 	 -1.049999 	 -3.605571 	 -5.918087 
H 	 2.797841 	 -7.411550 	 2.858432 
H 	 4.292343 	 -7.567175 	 3.305868 
H 	 -2.180529 	 -4.532235 	 3.262962 
H 	 -1.795085 	 -4.031923 	 1.913008 
H 	 -1.767594 	 -6.847263 	 3.662704 
H 	 -1.846215 	 -5.978964 	 4.936013 
H 	 -3.300287 	 2.687037 	 4.483097 
H 	 -3.685484 	 2.338848 	 5.932220 
H 	 -6.031394 	 -0.792767 	 -2.708369 
H 	 -6.234224 	 -2.122387 	 -3.573497 
H 	 -2.227556 	 1.279505 	 -4.440672 
H 	 -3.452653 	 0.774738 	 -3.514123 
H 	 0.905217 	 -2.985014 	 2.808561 
H 	 -0.093828 	 -3.312496 	 3.943107 
H 	 -6.965136 	 -0.077043 	 4.145675 
H 	 -6.750460 	 -0.141609 	 2.615267 
H 	 7.043993 	 -4.394555 	 3.572381 
H 	 7.073280 	 -5.687065 	 4.463580 
H 	 -6.830014 	 2.570682 	 -3.029352 
H 	 -5.375547 	 2.293571 	 -2.470995 
H 	 -5.243065 	 -4.234648 	 -2.202079 
H 	 -5.340021 	 -5.532083 	 -3.075375 
H 	 4.416177 	 2.616282 	 -3.301916 
H 	 3.442034 	 3.754304 	 -3.122423 
H 	 3.298233 	 -3.785815 	 3.423256 
H 	 4.667942 	 -4.499809 	 3.158446 
H 	 -6.268028 	 5.800839 	 1.068390 
H 	 -6.373339 	 -7.519673 	 1.242330 
H 	 6.359274 	 -3.487005 	 -1.023444 
H 	 7.184018 	 -2.229126 	 -0.651150 
H 	 1.082771 	 -0.689215 	 6.933008 
H 	 2.085120 	 -1.244713 	 -6.874549 
H 	 6.992820 	 4.108481 	 6.988626 
H 	 5.550364 	 4.016175 	 7.492420 
H 	 -2.574846 	 -7.076996 	 -5.747936 
H 	 -3.164479 	 -6.810747 	 -4.424908 
H 	 7.070849 	 5.310260 	 -4.664724 
H 	 6.405793 	 5.373034 	 -3.355880 
H 	 7.064622 	 -6.522964 	 -4.423262 
H 	 5.741010 	 -6.932012 	 -4.921566 
H 	 -1.104112 	 3.031632 	 -1.625301 
H 	 -2.236500 	 3.962916 	 -2.188056 
H 	 -0.725754 	 5.388498 	 2.422832 
H 	 -0.952952 	 6.062524 	 3.778482 
H 	 3.370020 	 -1.323130 	 -2.059792 
H 	 2.108383 	 -2.096919 	 -1.335068 
H 	 -5.129753 	 7.090137 	 -2.952011 
H 	 -5.631493 	 7.235199 	 -4.365905 
H 	 -6.869657 	 1.596184 	 1.305334 
H 	 -5.440138 	 1.004683 	 1.273230 
H 	 2.181333 	 2.689537 	 5.578142 
H 	 0.771685 	 3.135342 	 6.128521 
H 	 6.399501 	 2.005666 	 -4.524041 
H 	 6.308176 	 0.894716 	 -3.499968 
H 	 -7.379408 	 -5.134421 	 6.981244 
H 	 6.911780 	 -5.663106 	 -6.667553 
H 	 4.069054 	 4.603728 	 -5.914260 
H 	 5.121063 	 5.630807 	 -5.826589 
H 	 1.600525 	 2.266759 	 -2.104472 
H 	 0.503738 	 1.249324 	 -1.881862 
H 	 -2.771854 	 -2.607620 	 -5.196890 
H 	 -3.069756 	 -4.256243 	 -5.070238 
H 	 -0.077529 	 0.800075 	 1.755003 
H 	 0.118677 	 0.924831 	 0.255253 
H 	 0.333693 	 -1.522163 	 0.292470 
H 	 0.465176 	 -3.019340 	 -0.066812 
H 	 1.014412 	 1.724919 	 3.193597 
H 	 0.278496 	 0.689835 	 4.068145 
H 	 -4.246412 	 6.649918 	 -0.303695 
H 	 -5.339655 	 5.656698 	 -0.883264 
H 	 -1.506625 	 -0.524708 	 -1.104391 
H 	 -0.571140 	 -1.428136 	 -1.843546 
H 	 -0.880378 	 5.772634 	 -5.653006 
H 	 -0.000412 	 6.286667 	 -4.393647 
H 	 -7.360166 	 7.208199 	 6.352561 
H 	 6.247019 	 -6.942234 	 6.027480 
H 	 2.872373 	 -0.237245 	 1.237904 
H 	 2.996161 	 -0.345922 	 -0.256150 
H 	 -0.066933 	 6.492956 	 -2.265673 
H 	 0.610772 	 -7.116550 	 -2.445688 
H 	 -3.494860 	 -3.478404 	 -2.900293 
H 	 -3.371079 	 -2.356156 	 -1.844186 
H 	 0.264756 	 -1.549642 	 -4.523660 
H 	 -0.716385 	 -0.622396 	 -5.378101 
H 	 -3.149225 	 1.858258 	 -1.597872 
H 	 -3.782164 	 0.476838 	 -1.153771 
H 	 6.773405 	 0.580014 	 5.973163 
H 	 7.221321 	 1.892284 	 5.202017 
H 	 -6.323716 	 -1.037530 	 -6.363787 
H 	 -5.819909 	 -0.398864 	 -4.950051 
H 	 -6.921923 	 6.488878 	 -6.504999 
H 	 -6.018484 	 5.775340 	 7.290692 
H 	 -7.279750 	 -4.182280 	 -3.472476 
H 	 7.079670 	 -3.751666 	 -4.816409 
H 	 -5.926609 	 4.371811 	 -3.957746 
H 	 -5.361278 	 4.491103 	 -5.328837 
H 	 6.532394 	 0.010940 	 -0.817292 
H 	 -6.947064 	 -0.227766 	 -0.373090 
H 	 -3.249096 	 3.851685 	 0.101359 
H 	 -7.195395 	 3.292258 	 3.388044 
H 	 4.669710 	 -4.027933 	 -4.671525 
H 	 3.977254 	 -5.419424 	 -4.480681 
H 	 0.406381 	 -4.285557 	 -3.173416 
H 	 -0.896463 	 -3.609234 	 -3.749094 
H 	 -1.766495 	 3.278857 	 -7.201416 
H 	 -1.668529 	 3.108179 	 6.199137 
H 	 -5.242440 	 -5.481181 	 1.924977 
H 	 -5.102562 	 -4.848640 	 0.542251 
H 	 -6.927702 	 4.366936 	 4.486407 
O 	 2.936766 	 -5.447590 	 0.339775 
O 	 -0.052549 	 5.781519 	 5.349521 
O 	 4.741787 	 -6.240913 	 6.849736 
O 	 0.791767 	 -5.470939 	 -1.758775 
O 	 3.799995 	 -7.135197 	 -4.629561 
O 	 1.900068 	 7.096040 	 -6.695224 
O 	 6.123623 	 5.238583 	 -1.135695 
O 	 3.903344 	 0.695396 	 -6.711582 
O 	 6.069229 	 6.703973 	 3.495245 
O 	 5.123303 	 -1.539646 	 -5.882655 
O 	 -1.549138 	 -4.892546 	 -0.167819 
O 	 6.571826 	 1.560368 	 -6.156613 
O 	 -2.576300 	 -1.166438 	 -6.062394 
O 	 2.017471 	 1.511524 	 -4.739881 
O 	 -5.113631 	 -5.135230 	 3.704537 
O 	 1.826024 	 -5.026474 	 -6.533973 
O 	 -2.134142 	 6.599317 	 -7.259307 
O 	 4.535909 	 3.948220 	 4.230570 
O 	 7.238599 	 2.986729 	 1.782143 
O 	 -4.090908 	 2.157305 	 2.918944 
O 	 -7.246698 	 -3.443254 	 2.146098 
O 	 -3.173835 	 -0.552981 	 3.111634 
O 	 2.342352 	 6.489942 	 0.082570 
O 	 4.633145 	 -4.392556 	 -1.478014 
O 	 -3.057678 	 5.231622 	 -3.349226 
O 	 -4.347921 	 -4.761394 	 -7.141281 
O 	 -6.910866 	 -2.101476 	 7.100747 
O 	 -4.463218 	 -3.066627 	 1.196267 
O 	 2.839781 	 -1.813338 	 4.842925 
O 	 1.963289 	 3.603776 	 2.380482 
O 	 -0.942844 	 -5.857760 	 6.637269 
O 	 2.290294 	 4.044911 	 -5.436613 
O 	 0.766879 	 -6.765442 	 2.527119 
O 	 3.123037 	 1.236296 	 5.281533 
O 	 3.595604 	 5.758316 	 -2.597708 
O 	 -0.596491 	 6.248894 	 -0.374244 
O 	 4.385394 	 4.992658 	 1.178436 
O 	 -3.840789 	 6.453504 	 3.133346 
O 	 -4.322875 	 3.303560 	 -6.114318 
O 	 -0.357835 	 0.297767 	 6.194947 
O 	 -5.024208 	 -2.578152 	 5.078531 
O 	 -0.910516 	 2.533775 	 -4.627840 
O 	 5.194675 	 -1.163276 	 -3.111112 
O 	 1.525953 	 -5.427715 	 5.566006 
O 	 -4.924598 	 1.149028 	 6.745350 
O 	 -2.903365 	 -7.204436 	 0.700795 
O 	 4.689005 	 -3.552876 	 5.977807 
O 	 5.786452 	 -0.758253 	 6.155178 
O 	 -6.386671 	 4.311276 	 -0.088631 
O 	 5.480169 	 1.693862 	 -0.238406 
O 	 6.339075 	 -6.613593 	 -1.993388 
O 	 -2.415086 	 -1.495983 	 5.501858 
O 	 -0.535731 	 3.758192 	 1.187705 
O 	 -2.868803 	 -0.596759 	 -0.020950 
O 	 -4.313464 	 5.463849 	 6.051873 
O 	 -0.439273 	 -3.731865 	 -6.630577 
O 	 3.383629 	 7.215490 	 3.663569 
O 	 -2.238407 	 -3.718775 	 2.722208 
O 	 -2.264595 	 -6.093764 	 4.075322 
O 	 -3.212764 	 3.010365 	 5.436853 
O 	 -5.606033 	 -1.396671 	 -3.362007 
O 	 -3.166533 	 0.906117 	 -4.425227 
O 	 0.851780 	 -3.398353 	 3.710691 
O 	 -6.805888 	 -0.739989 	 3.412723 
O 	 6.576275 	 -4.895890 	 4.291578 
O 	 -5.922802 	 2.912442 	 -2.991268 
O 	 -5.842038 	 -4.711470 	 -2.807143 
O 	 3.581367 	 2.844039 	 -2.827886 
O 	 3.805203 	 -4.271619 	 2.776194 
O 	 -6.523683 	 6.515640 	 1.653905 
O 	 7.254337 	 -3.232672 	 -0.740210 
O 	 1.601308 	 -1.493653 	 7.227519 
O 	 6.201654 	 3.538651 	 6.920373 
O 	 -2.562275 	 -6.391378 	 -5.082248 
O 	 6.176495 	 5.429629 	 -4.279319 
O 	 6.678040 	 -6.923251 	 -5.242459 
O 	 -2.082492 	 3.275335 	 -1.517459 
O 	 -1.061255 	 6.233749 	 2.781398 
O 	 2.430494 	 -1.330765 	 -1.772503 
O 	 -5.323923 	 -7.155060 	 -3.619694 
O 	 -6.364003 	 0.752260 	 1.107517 
O 	 1.577569 	 3.453127 	 5.632441 
O 	 6.200188 	 1.867529 	 -3.527382 
O 	 -7.429752 	 -4.912351 	 -6.977487 
O 	 4.580907 	 5.161275 	 -6.535387 
O 	 0.844860 	 2.115103 	 -1.586792 
O 	 -2.597520 	 -3.472579 	 -4.678908 
O 	 -0.598335 	 1.040797 	 0.920336 
O 	 0.585562 	 -2.382456 	 0.635250 
O 	 0.717081 	 0.782302 	 3.153521 
O 	 -4.750040 	 6.421622 	 -1.106730 
O 	 -0.571641 	 -0.572219 	 -1.403128 
O 	 -0.059930 	 5.618689 	 -5.143059 
O 	 7.138465 	 -7.015334 	 5.783234 
O 	 3.152582 	 0.290114 	 0.486069 
O 	 0.240138 	 7.019693 	 -3.000432 
O 	 -3.438878 	 -3.290805 	 -1.949799 
O 	 0.135547 	 -0.635431 	 -4.893881 
O 	 -3.832412 	 1.185702 	 -1.843917 
O 	 -7.385042 	 0.959962 	 5.482084 
O 	 -6.032787 	 -0.201758 	 -5.908873 
O 	 -6.941506 	 5.924320 	 -7.318586 
O 	 6.813868 	 -3.761885 	 -3.865127 
O 	 -5.895192 	 5.014010 	 -4.689524 
O 	 7.308256 	 -0.570382 	 -1.042434 
O 	 -3.782682 	 4.250053 	 0.847026 
O 	 3.780460 	 -4.444149 	 -4.625646 
O 	 0.059023 	 -3.407953 	 -3.488082 
O 	 -1.087572 	 3.040352 	 7.061658 
O 	 -5.283036 	 -5.756738 	 0.916625 
O 	 -6.783175 	 3.394166 	 4.303578 
K 	 3.069745 	 6.022094 	 5.927765 
