333
conformation = 12
H 	 2.599775 	 -6.280474 	 0.597925 
H 	 3.123475 	 -4.998340 	 1.190579 
H 	 -0.800249 	 5.953228 	 5.805581 
H 	 0.240978 	 4.842056 	 5.269415 
H 	 4.928424 	 -6.062347 	 -6.761667 
H 	 4.547704 	 -5.308464 	 6.859684 
H 	 0.207649 	 -5.314759 	 -1.010099 
H 	 1.758780 	 -5.164751 	 -0.936784 
H 	 3.699169 	 7.149154 	 -3.981402 
H 	 3.184917 	 -7.378968 	 -5.378055 
H 	 1.264358 	 6.755032 	 -6.108675 
H 	 1.755239 	 -6.789288 	 -6.624717 
H 	 7.099805 	 5.060750 	 -1.074335 
H 	 6.607942 	 6.463981 	 -1.343242 
H 	 3.235073 	 1.019373 	 -6.053970 
H 	 4.781040 	 1.362058 	 -6.545056 
H 	 6.856201 	 6.850005 	 2.805154 
H 	 6.402950 	 -7.308970 	 4.106908 
H 	 4.773344 	 -0.976616 	 -6.401632 
H 	 6.085588 	 -1.835360 	 -6.145557 
H 	 -1.908079 	 -5.313165 	 0.193633 
H 	 -2.220338 	 -4.117873 	 -0.728274 
H 	 7.245506 	 0.950900 	 -6.083606 
H 	 6.650604 	 2.279070 	 -6.891394 
H 	 -2.937148 	 -0.901579 	 -6.964599 
H 	 -3.083409 	 -0.413082 	 -5.448168 
H 	 1.389252 	 0.534996 	 -4.603847 
H 	 2.419898 	 1.621695 	 -3.757870 
H 	 -3.951556 	 -5.337610 	 4.187996 
H 	 -5.153010 	 -4.382493 	 4.399342 
H 	 1.003979 	 -4.640229 	 -6.524248 
H 	 2.338216 	 -4.742890 	 -5.766102 
H 	 -1.953869 	 -7.256098 	 7.039658 
H 	 -2.923177 	 6.364686 	 6.957734 
H 	 5.148140 	 3.855032 	 4.951846 
H 	 3.877835 	 3.152560 	 4.443823 
H 	 -7.106194 	 3.708201 	 0.776706 
H 	 6.408577 	 2.907066 	 1.046741 
H 	 -5.239443 	 2.531777 	 3.133011 
H 	 -4.133202 	 2.923044 	 2.173618 
H 	 7.409468 	 -3.004527 	 0.993660 
H 	 -7.153769 	 -2.396328 	 2.441114 
H 	 -3.797968 	 0.235448 	 2.834637 
H 	 -3.649503 	 -1.293702 	 2.564900 
H 	 2.660244 	 6.133263 	 0.813813 
H 	 1.273075 	 6.563299 	 0.086943 
H 	 4.181822 	 -4.439586 	 -2.528459 
H 	 4.045935 	 -4.646626 	 -0.968119 
H 	 -3.477119 	 5.653865 	 -4.004552 
H 	 -3.950472 	 5.763635 	 -2.562740 
H 	 -4.001658 	 -5.508380 	 -6.943064 
H 	 -5.157223 	 -4.556328 	 7.477126 
H 	 -6.320145 	 -2.226863 	 6.322016 
H 	 -7.161916 	 -2.990268 	 7.305236 
H 	 -3.907699 	 -3.480910 	 1.842942 
H 	 -5.303788 	 -3.050384 	 1.351523 
H 	 2.408938 	 -1.832364 	 4.074809 
H 	 2.341360 	 -1.402460 	 5.585243 
H 	 2.571344 	 3.775152 	 1.845852 
H 	 2.245098 	 4.299093 	 3.308554 
H 	 -0.997779 	 -4.890713 	 7.116769 
H 	 -0.165699 	 -5.918210 	 6.346708 
H 	 2.182822 	 3.156884 	 -5.704250 
H 	 1.487389 	 4.505700 	 -5.576954 
H 	 0.763269 	 -6.327592 	 3.396006 
H 	 0.468656 	 -7.259781 	 2.290772 
H 	 3.154869 	 0.457158 	 4.967514 
H 	 3.606184 	 1.269905 	 6.317044 
H 	 4.095100 	 5.636914 	 -1.909723 
H 	 2.662131 	 5.957954 	 -1.999064 
H 	 -0.803406 	 5.286245 	 -0.219206 
H 	 -1.420624 	 6.781138 	 -0.142090 
H 	 4.736574 	 5.099348 	 2.043746 
H 	 5.074856 	 5.349405 	 0.571646 
H 	 -4.790617 	 6.363314 	 2.766296 
H 	 -3.378599 	 5.747844 	 2.856763 
H 	 -4.652542 	 3.037023 	 -5.379058 
H 	 -4.547337 	 2.711851 	 -6.814804 
H 	 -0.296083 	 1.612599 	 6.254556 
H 	 -1.130933 	 0.387834 	 6.188418 
H 	 -5.713762 	 -1.766872 	 4.166456 
H 	 -4.432372 	 -1.991671 	 5.172675 
H 	 -0.848647 	 3.841034 	 -4.555250 
H 	 -0.164722 	 2.427094 	 -4.352184 
H 	 5.129503 	 -0.679298 	 -4.196121 
H 	 5.657464 	 -1.669337 	 -3.076010 
H 	 1.886177 	 -5.083735 	 6.132823 
H 	 1.366308 	 -4.800895 	 4.686508 
H 	 -4.693740 	 0.577912 	 -7.256008 
H 	 -5.561103 	 1.011172 	 6.548355 
H 	 -2.610857 	 -7.293527 	 1.768178 
H 	 -3.767605 	 -6.579198 	 0.848527 
H 	 3.844940 	 -3.005496 	 5.642019 
H 	 5.112271 	 -3.630241 	 4.846585 
H 	 6.387170 	 -1.345515 	 6.462790 
H 	 5.122639 	 -1.396774 	 5.607522 
H 	 -4.761612 	 4.305020 	 0.596048 
H 	 -6.107107 	 3.864960 	 -0.961241 
H 	 4.810650 	 1.087324 	 0.074157 
H 	 4.702950 	 2.301288 	 -0.817216 
H 	 7.144447 	 -6.033650 	 -2.020368 
H 	 5.678434 	 -6.149933 	 -1.576195 
H 	 -2.008350 	 -2.129440 	 5.163733 
H 	 -2.745266 	 -0.770447 	 4.863087 
H 	 -0.782254 	 3.008136 	 1.089556 
H 	 0.498116 	 3.702701 	 1.680522 
H 	 -2.261279 	 0.010102 	 0.392865 
H 	 -3.441918 	 -1.028132 	 0.571351 
H 	 -4.209429 	 4.706523 	 5.809112 
H 	 -4.370156 	 5.986910 	 4.964250 
H 	 0.047716 	 -2.748788 	 -6.415671 
H 	 -1.266659 	 -3.542798 	 -5.853306 
H 	 2.994164 	 -7.215531 	 2.905076 
H 	 4.506252 	 7.088415 	 3.297723 
H 	 -2.067559 	 -4.607931 	 2.760144 
H 	 -1.748083 	 -3.497163 	 1.746981 
H 	 -2.573917 	 -6.964827 	 4.030644 
H 	 -1.893975 	 -5.831201 	 4.980679 
H 	 -3.330256 	 2.863434 	 4.358950 
H 	 -3.841281 	 2.246714 	 5.669644 
H 	 -6.240502 	 -0.973120 	 -2.926801 
H 	 -5.732845 	 -2.425068 	 -3.503232 
H 	 -2.433317 	 1.626760 	 -4.479732 
H 	 -3.355716 	 0.881972 	 -3.454424 
H 	 1.377065 	 -3.554780 	 2.724552 
H 	 0.003491 	 -3.167546 	 3.466903 
H 	 -7.001661 	 -0.155319 	 4.063712 
H 	 -6.518394 	 -0.208184 	 2.549491 
H 	 7.064594 	 -4.017226 	 3.368124 
H 	 7.169103 	 -5.171631 	 4.421496 
H 	 -6.735824 	 2.533263 	 -3.342244 
H 	 -5.299824 	 2.514249 	 -2.745381 
H 	 -4.988676 	 -4.101825 	 -2.541891 
H 	 -5.627536 	 -5.049040 	 -3.617291 
H 	 4.607115 	 2.512330 	 -3.355674 
H 	 3.352648 	 3.479702 	 -3.296618 
H 	 3.404962 	 -3.687167 	 3.371005 
H 	 4.307788 	 -4.824091 	 2.950824 
H 	 -7.016884 	 5.966095 	 1.036220 
H 	 -6.411809 	 -7.477013 	 1.259415 
H 	 6.366430 	 -3.502121 	 -1.056910 
H 	 7.021828 	 -2.073273 	 -0.741018 
H 	 1.059456 	 -0.721705 	 7.187011 
H 	 2.328235 	 -0.951082 	 -7.087059 
H 	 6.601771 	 4.434006 	 6.769370 
H 	 5.336345 	 4.058262 	 7.465088 
H 	 -2.376141 	 -7.197789 	 -5.733945 
H 	 -2.622945 	 -6.720335 	 -4.285244 
H 	 7.153128 	 5.212141 	 -4.460514 
H 	 6.049998 	 5.454042 	 -3.438079 
H 	 7.250388 	 -7.140390 	 -4.588922 
H 	 6.018756 	 -7.451275 	 -5.222348 
H 	 -1.174917 	 3.048067 	 -1.472106 
H 	 -2.169520 	 4.147305 	 -2.047296 
H 	 -0.761674 	 5.382881 	 2.301255 
H 	 -0.812384 	 6.172179 	 3.639411 
H 	 3.417143 	 -1.069699 	 -2.516872 
H 	 2.853649 	 -2.045893 	 -1.440376 
H 	 -5.206978 	 -7.300604 	 -2.697959 
H 	 -5.232523 	 6.871341 	 -3.996103 
H 	 -6.923509 	 1.740551 	 1.362823 
H 	 -5.640905 	 0.988251 	 0.836374 
H 	 2.005591 	 2.988779 	 5.629080 
H 	 1.002709 	 3.615327 	 6.744889 
H 	 6.335627 	 1.869630 	 -4.410387 
H 	 6.304167 	 1.095594 	 -3.123084 
H 	 7.196269 	 -5.507940 	 7.275826 
H 	 -7.238646 	 -5.181195 	 -6.210192 
H 	 3.697754 	 4.616020 	 -6.407360 
H 	 5.018878 	 5.034851 	 -5.669051 
H 	 1.555380 	 2.288156 	 -1.349226 
H 	 0.762679 	 1.160800 	 -1.896907 
H 	 -3.009164 	 -2.721202 	 -5.362769 
H 	 -3.175389 	 -4.363539 	 -5.348837 
H 	 -0.039084 	 1.077893 	 1.341484 
H 	 -0.143246 	 1.236855 	 -0.097910 
H 	 0.313055 	 -2.016801 	 0.009247 
H 	 0.406876 	 -3.432800 	 0.635210 
H 	 1.526461 	 1.682799 	 3.108598 
H 	 0.658695 	 0.993292 	 4.114150 
H 	 -4.063772 	 6.678807 	 -0.404975 
H 	 -5.472973 	 6.019908 	 -0.634184 
H 	 -1.388977 	 -1.065795 	 -1.380387 
H 	 -0.203690 	 -1.096184 	 -2.425036 
H 	 -0.950718 	 5.944116 	 -5.868872 
H 	 -0.171243 	 6.278720 	 -4.475543 
H 	 7.318250 	 7.310373 	 6.073671 
H 	 5.858873 	 -6.846744 	 6.282691 
H 	 3.249225 	 -0.297882 	 0.984656 
H 	 2.837838 	 -0.060087 	 -0.415398 
H 	 0.046586 	 6.950808 	 -2.116827 
H 	 0.628772 	 -6.926421 	 -2.982288 
H 	 -2.788608 	 -2.886050 	 -2.595388 
H 	 -3.571625 	 -2.482580 	 -1.340368 
H 	 0.256613 	 -1.527848 	 -4.687649 
H 	 -0.862662 	 -0.663959 	 -5.382364 
H 	 -3.194431 	 2.135847 	 -1.607045 
H 	 -3.823252 	 0.701451 	 -1.231958 
H 	 6.763669 	 0.776915 	 5.842091 
H 	 -7.367380 	 2.074223 	 5.142021 
H 	 -6.435541 	 -0.839173 	 -6.566534 
H 	 -5.917931 	 -0.486604 	 -5.107026 
H 	 -6.879544 	 6.094829 	 -6.525588 
H 	 -5.945579 	 5.903979 	 7.229905 
H 	 -7.376846 	 -3.901680 	 -3.522125 
H 	 7.257555 	 -3.769665 	 -5.086085 
H 	 -5.766652 	 4.584035 	 -4.136557 
H 	 -5.354775 	 4.870865 	 -5.623267 
H 	 6.485360 	 0.279626 	 -1.359545 
H 	 -7.268009 	 0.192421 	 -0.327194 
H 	 -3.204927 	 3.981513 	 0.461900 
H 	 -7.145160 	 3.599023 	 3.279040 
H 	 4.575277 	 -3.974108 	 -4.893172 
H 	 3.797907 	 -5.319893 	 -4.606363 
H 	 0.676952 	 -3.464752 	 -3.021603 
H 	 -0.512045 	 -3.934346 	 -3.998530 
H 	 -1.077747 	 2.921862 	 -6.923059 
H 	 -1.984624 	 3.192790 	 6.655261 
H 	 -5.358472 	 -5.118378 	 1.777945 
H 	 -5.528904 	 -4.992633 	 0.323185 
H 	 -6.197304 	 4.216390 	 4.450135 
O 	 2.955058 	 -5.411357 	 0.324384 
O 	 -0.154041 	 5.778020 	 5.135341 
O 	 4.618593 	 -6.248265 	 7.193726 
O 	 0.996487 	 -5.306434 	 -1.574484 
O 	 3.914316 	 -7.155834 	 -4.745422 
O 	 1.925217 	 7.127334 	 -6.726129 
O 	 6.277297 	 5.530664 	 -1.264227 
O 	 3.905481 	 0.905290 	 -6.791064 
O 	 6.144922 	 6.830636 	 3.464725 
O 	 5.209517 	 -1.591813 	 -5.789246 
O 	 -1.452410 	 -4.547382 	 -0.249874 
O 	 6.590261 	 1.672810 	 -6.095267 
O 	 -2.722780 	 -1.114410 	 -6.012251 
O 	 1.991824 	 1.327957 	 -4.616267 
O 	 -4.920545 	 -5.220812 	 3.968293 
O 	 1.916402 	 -5.093784 	 -6.587743 
O 	 -2.158758 	 6.789114 	 -7.385838 
O 	 4.440709 	 3.940296 	 4.289199 
O 	 7.273429 	 3.113401 	 1.527511 
O 	 -4.360022 	 2.237879 	 2.777205 
O 	 -7.055702 	 -3.209743 	 1.887319 
O 	 -3.153304 	 -0.462935 	 2.792536 
O 	 2.232404 	 6.558313 	 -0.022069 
O 	 4.586310 	 -4.183310 	 -1.678512 
O 	 -3.218586 	 5.372783 	 -3.105286 
O 	 -4.196283 	 -4.583748 	 -7.154458 
O 	 -6.943299 	 -2.051211 	 7.110090 
O 	 -4.312030 	 -2.925581 	 1.153602 
O 	 2.947285 	 -1.538282 	 4.847261 
O 	 2.010379 	 3.616675 	 2.650337 
O 	 -1.109484 	 -5.759336 	 6.649816 
O 	 2.350098 	 4.103187 	 -5.524533 
O 	 1.085845 	 -6.524130 	 2.495598 
O 	 3.262190 	 1.363023 	 5.363541 
O 	 3.367160 	 5.712265 	 -2.590561 
O 	 -0.614777 	 6.294575 	 -0.450212 
O 	 4.383801 	 5.049517 	 1.168667 
O 	 -3.994420 	 6.363936 	 3.349714 
O 	 -4.186680 	 3.347704 	 -6.195545 
O 	 -0.206304 	 0.649187 	 6.180755 
O 	 -5.295256 	 -2.347543 	 4.873410 
O 	 -1.008758 	 2.858453 	 -4.692497 
O 	 5.232629 	 -0.764733 	 -3.175274 
O 	 1.453363 	 -5.509362 	 5.361829 
O 	 -4.623707 	 1.131443 	 6.863086 
O 	 -2.920284 	 -7.102203 	 0.824808 
O 	 4.700247 	 -3.490789 	 5.730380 
O 	 5.717172 	 -0.750739 	 6.060265 
O 	 -6.293315 	 4.390844 	 -0.153783 
O 	 5.401428 	 1.756680 	 -0.355736 
O 	 6.422216 	 -6.674465 	 -1.904893 
O 	 -2.482717 	 -1.413763 	 5.549691 
O 	 -0.295628 	 3.912322 	 1.185595 
O 	 -2.981228 	 -0.508187 	 -0.086571 
O 	 -4.427720 	 5.660387 	 5.864724 
O 	 -0.574209 	 -3.524520 	 -6.592342 
O 	 3.544182 	 7.102340 	 3.533627 
O 	 -2.055705 	 -3.631978 	 2.660990 
O 	 -2.213873 	 -6.039072 	 4.048850 
O 	 -3.361809 	 3.021000 	 5.349913 
O 	 -5.668589 	 -1.452729 	 -3.567445 
O 	 -3.122261 	 0.906459 	 -4.433137 
O 	 0.974655 	 -3.193884 	 3.545842 
O 	 -6.791245 	 -0.820817 	 3.303424 
O 	 6.540334 	 -4.638027 	 3.947427 
O 	 -5.997427 	 3.110671 	 -3.094721 
O 	 -5.847670 	 -4.520260 	 -2.791829 
O 	 3.674572 	 2.610916 	 -3.020401 
O 	 3.717517 	 -4.130240 	 2.600144 
O 	 -6.768337 	 6.625862 	 1.694738 
O 	 7.166293 	 -3.069070 	 -0.723829 
O 	 1.753371 	 -1.406664 	 7.228303 
O 	 5.972719 	 3.689469 	 6.801108 
O 	 -2.343808 	 -6.421582 	 -5.152626 
O 	 6.200815 	 5.463079 	 -4.390986 
O 	 6.700484 	 -6.749850 	 -5.299476 
O 	 -2.087452 	 3.466504 	 -1.364737 
O 	 -1.015113 	 6.232560 	 2.711961 
O 	 2.630209 	 -1.251627 	 -1.887435 
O 	 -5.195772 	 -7.140949 	 -3.636514 
O 	 -6.564430 	 0.792306 	 1.060369 
O 	 1.507780 	 3.777658 	 5.911565 
O 	 6.402265 	 2.019955 	 -3.436609 
O 	 7.443450 	 -4.713949 	 -7.047971 
O 	 4.487369 	 5.201858 	 -6.541541 
O 	 0.708408 	 2.112925 	 -1.709762 
O 	 -2.713011 	 -3.584464 	 -4.944155 
O 	 -0.761058 	 1.117653 	 0.658072 
O 	 0.779852 	 -2.553132 	 0.657239 
O 	 0.870320 	 0.946612 	 3.119116 
O 	 -4.790695 	 6.643077 	 -1.060425 
O 	 -0.455605 	 -0.813192 	 -1.525714 
O 	 -0.197807 	 5.679933 	 -5.306914 
O 	 6.856001 	 -6.767883 	 5.893425 
O 	 3.165315 	 0.428047 	 0.342548 
O 	 0.372229 	 7.001776 	 -3.024462 
O 	 -3.220483 	 -3.226713 	 -1.806031 
O 	 0.059928 	 -0.612571 	 -5.042605 
O 	 -3.867277 	 1.468020 	 -1.872248 
O 	 -7.311675 	 1.117824 	 5.464262 
O 	 -6.208823 	 -0.087207 	 -5.986647 
O 	 -6.878605 	 5.979967 	 7.402255 
O 	 6.808089 	 -3.613354 	 -4.205723 
O 	 -5.821617 	 5.278095 	 -4.845509 
O 	 7.138113 	 -0.348256 	 -0.960006 
O 	 -3.905797 	 4.267239 	 1.096220 
O 	 3.700613 	 -4.325329 	 -4.653300 
O 	 0.048526 	 -3.164967 	 -3.724417 
O 	 -1.046112 	 3.125004 	 7.025045 
O 	 -5.381687 	 -5.707512 	 0.958416 
O 	 -6.584776 	 3.402762 	 4.054235 
K 	 3.131721 	 6.167796 	 5.863614 
