333
conformation = 64
H 	 2.821906 	 -6.460997 	 0.324234 
H 	 3.109239 	 -5.114485 	 1.292497 
H 	 -0.668947 	 5.541679 	 6.119094 
H 	 0.367072 	 4.882778 	 5.308971 
H 	 4.472162 	 -6.503288 	 -7.059542 
H 	 4.580665 	 -5.341869 	 6.751618 
H 	 -0.071799 	 -5.434468 	 -1.225796 
H 	 1.400284 	 -5.651024 	 -0.922584 
H 	 3.668601 	 7.132672 	 -3.817091 
H 	 3.135572 	 -7.436029 	 -5.258732 
H 	 1.138940 	 6.611448 	 -6.125396 
H 	 1.709671 	 -6.884613 	 -6.554892 
H 	 7.070098 	 4.946541 	 -0.835508 
H 	 6.137201 	 6.171345 	 -1.207243 
H 	 3.379377 	 1.167058 	 -6.021569 
H 	 4.815583 	 0.958984 	 -6.468629 
H 	 6.852913 	 6.506629 	 2.937575 
H 	 6.588250 	 6.838954 	 4.348174 
H 	 4.679005 	 -0.822583 	 -6.280319 
H 	 5.958395 	 -1.671307 	 -6.341088 
H 	 -1.946697 	 -5.783991 	 0.074204 
H 	 -2.143372 	 -4.505872 	 -0.782493 
H 	 7.368927 	 0.977586 	 -6.310689 
H 	 6.570548 	 2.201668 	 -6.796578 
H 	 -2.941101 	 -1.187925 	 -6.927338 
H 	 -3.076510 	 -0.540945 	 -5.459488 
H 	 1.575974 	 0.589287 	 -4.621528 
H 	 2.498490 	 1.633016 	 -3.856715 
H 	 -4.199819 	 -5.465484 	 4.017755 
H 	 -5.158513 	 -4.218020 	 3.949699 
H 	 1.000475 	 -4.742690 	 -6.079915 
H 	 2.533577 	 -4.825535 	 -5.849812 
H 	 -1.608309 	 -7.625463 	 7.287442 
H 	 -2.953343 	 6.394293 	 7.223000 
H 	 5.347417 	 4.226958 	 4.734416 
H 	 4.375787 	 2.958441 	 4.550262 
H 	 -7.075327 	 3.504032 	 1.117538 
H 	 6.345140 	 2.916580 	 1.377291 
H 	 -4.914625 	 2.550750 	 3.275201 
H 	 -3.740385 	 2.777666 	 2.287125 
H 	 7.364037 	 -3.442246 	 1.246704 
H 	 7.245619 	 -2.799217 	 2.733361 
H 	 -3.484856 	 0.356238 	 3.090733 
H 	 -3.915714 	 -1.127999 	 2.674619 
H 	 2.764208 	 5.714849 	 0.667672 
H 	 1.353205 	 6.438396 	 0.192831 
H 	 4.095341 	 -3.978973 	 -2.141470 
H 	 3.979907 	 -4.743740 	 -0.785404 
H 	 -3.747021 	 4.733633 	 -3.802754 
H 	 -3.545959 	 5.590649 	 -2.489746 
H 	 -4.354800 	 -5.565376 	 -6.538638 
H 	 -5.296877 	 -4.638987 	 -7.155144 
H 	 -6.196579 	 -2.344136 	 6.457789 
H 	 -7.175908 	 -3.013634 	 7.555969 
H 	 -3.755175 	 -3.628661 	 1.755090 
H 	 -5.230917 	 -3.286247 	 1.803610 
H 	 2.079292 	 -2.184960 	 4.415630 
H 	 2.509370 	 -1.808611 	 5.835274 
H 	 2.754350 	 3.427707 	 1.914336 
H 	 2.262935 	 4.070118 	 3.228157 
H 	 -1.043369 	 -5.095223 	 7.306776 
H 	 -0.062526 	 -5.891100 	 6.302159 
H 	 1.983688 	 3.111804 	 -5.058611 
H 	 1.608498 	 4.652219 	 -5.214550 
H 	 0.919738 	 -6.722247 	 3.527851 
H 	 0.083296 	 -7.505172 	 2.576876 
H 	 2.771968 	 0.365322 	 4.960926 
H 	 3.412660 	 0.884357 	 6.189536 
H 	 4.417279 	 5.456628 	 -2.167003 
H 	 3.058202 	 6.148271 	 -1.822497 
H 	 -0.579252 	 5.411368 	 0.169707 
H 	 -1.237422 	 6.745360 	 0.110710 
H 	 4.988284 	 4.823303 	 2.000801 
H 	 4.988518 	 4.855663 	 0.437418 
H 	 -4.745902 	 6.764668 	 3.076558 
H 	 -3.765981 	 5.602324 	 2.623108 
H 	 -3.770721 	 2.593446 	 -5.677097 
H 	 -4.550636 	 2.983791 	 -6.995850 
H 	 -0.805356 	 0.830480 	 6.913424 
H 	 -0.971519 	 -0.502477 	 6.184365 
H 	 -5.475751 	 -2.074818 	 4.392885 
H 	 -4.249350 	 -2.147935 	 5.389658 
H 	 -0.804566 	 3.462957 	 -4.768163 
H 	 -0.051554 	 2.138113 	 -4.542484 
H 	 5.069051 	 -1.639028 	 -3.904714 
H 	 5.866260 	 -1.641058 	 -2.532726 
H 	 1.903925 	 -5.334994 	 6.497448 
H 	 1.759682 	 -4.634062 	 5.171066 
H 	 -5.196201 	 0.600355 	 -7.270559 
H 	 -5.660611 	 1.000945 	 6.179558 
H 	 -2.761094 	 7.074061 	 1.512068 
H 	 -3.649617 	 -6.752225 	 1.147701 
H 	 4.210399 	 -3.297347 	 5.212040 
H 	 5.546143 	 -3.919680 	 5.707455 
H 	 6.336124 	 -1.574455 	 6.504807 
H 	 4.987352 	 -1.051660 	 5.673842 
H 	 -4.701995 	 4.128644 	 0.551223 
H 	 -6.240518 	 3.648499 	 -0.798119 
H 	 4.576506 	 1.690484 	 0.191490 
H 	 5.413496 	 2.309525 	 -0.908009 
H 	 7.213353 	 -6.232219 	 -1.824413 
H 	 5.699482 	 -5.925173 	 -1.903020 
H 	 -1.718987 	 -2.234215 	 5.687532 
H 	 -2.376230 	 -1.422561 	 4.570406 
H 	 -0.629163 	 2.766956 	 1.111352 
H 	 0.466408 	 3.858312 	 1.478527 
H 	 -2.194892 	 -0.235180 	 0.612915 
H 	 -3.134759 	 -1.463612 	 0.504481 
H 	 -3.755419 	 4.592507 	 5.947290 
H 	 -4.335804 	 5.764687 	 5.117538 
H 	 -0.305989 	 -2.876922 	 -6.940443 
H 	 -1.107557 	 -3.702084 	 -5.860168 
H 	 2.852906 	 -7.422565 	 2.991550 
H 	 4.304018 	 7.207886 	 3.339892 
H 	 -2.115524 	 -4.592050 	 3.317517 
H 	 -1.785738 	 -4.010774 	 1.932038 
H 	 -1.877248 	 -6.958953 	 3.779210 
H 	 -1.853404 	 -6.030350 	 5.006971 
H 	 -3.340968 	 2.631563 	 4.579613 
H 	 -3.705658 	 2.298125 	 6.055566 
H 	 -6.065833 	 -0.942321 	 -2.668802 
H 	 -6.269417 	 -2.144942 	 -3.476729 
H 	 -2.270722 	 1.268418 	 -4.411288 
H 	 -3.449865 	 0.700655 	 -3.432026 
H 	 0.868661 	 -3.023781 	 2.857234 
H 	 -0.058866 	 -3.307323 	 3.942019 
H 	 -7.045687 	 -0.208492 	 4.177203 
H 	 -6.822166 	 -0.228577 	 2.656882 
H 	 7.053859 	 -4.506350 	 3.569386 
H 	 7.104121 	 -5.731677 	 4.638622 
H 	 -6.877053 	 2.571814 	 -2.979584 
H 	 -5.367100 	 2.216674 	 -2.500025 
H 	 -5.219438 	 -4.277480 	 -2.178777 
H 	 -5.386865 	 -5.565793 	 -3.000315 
H 	 4.427367 	 2.585811 	 -3.243874 
H 	 3.478201 	 3.717120 	 -3.087977 
H 	 3.334679 	 -3.799627 	 3.475148 
H 	 4.672844 	 -4.581929 	 3.177818 
H 	 -6.253437 	 5.750028 	 1.094155 
H 	 -6.385623 	 -7.600442 	 1.239582 
H 	 6.321165 	 -3.498648 	 -0.991229 
H 	 7.139005 	 -2.308482 	 -0.621851 
H 	 1.063296 	 -0.757795 	 6.954628 
H 	 2.187553 	 -1.312383 	 -6.893065 
H 	 6.991020 	 3.999575 	 7.032477 
H 	 5.550670 	 3.969282 	 7.563120 
H 	 -2.569788 	 -7.188324 	 -5.696361 
H 	 -3.095868 	 -6.803982 	 -4.350519 
H 	 7.080463 	 5.274110 	 -4.581825 
H 	 6.338231 	 5.365613 	 -3.272585 
H 	 7.126108 	 -6.678142 	 -4.369989 
H 	 5.726739 	 -6.945000 	 -4.898916 
H 	 -1.110263 	 3.007484 	 -1.587339 
H 	 -2.281054 	 3.900516 	 -2.163227 
H 	 -0.785010 	 5.315596 	 2.401426 
H 	 -0.946625 	 5.953480 	 3.830477 
H 	 3.364534 	 -1.384695 	 -2.028076 
H 	 2.185748 	 -2.162709 	 -1.230761 
H 	 -5.128638 	 7.035020 	 -2.825158 
H 	 -5.625652 	 7.195759 	 -4.374609 
H 	 -6.930537 	 1.551487 	 1.366494 
H 	 -5.459300 	 0.940363 	 1.330129 
H 	 2.168096 	 2.626488 	 5.667291 
H 	 0.818072 	 3.112077 	 6.204419 
H 	 6.415783 	 1.972858 	 -4.412360 
H 	 6.301165 	 0.835320 	 -3.436297 
H 	 -7.335966 	 -5.204209 	 7.047421 
H 	 6.862682 	 -5.660255 	 -6.591487 
H 	 3.989535 	 4.612194 	 -5.844674 
H 	 5.150753 	 5.528561 	 -5.867092 
H 	 1.656369 	 2.269843 	 -2.085592 
H 	 0.528066 	 1.166030 	 -1.798398 
H 	 -2.813527 	 -2.728594 	 -5.144501 
H 	 -3.123131 	 -4.239860 	 -5.054950 
H 	 -0.208683 	 0.710979 	 1.812747 
H 	 0.093572 	 0.994912 	 0.266055 
H 	 0.330348 	 -1.588801 	 0.250324 
H 	 0.489029 	 -3.122919 	 -0.012212 
H 	 1.043210 	 1.666219 	 3.201088 
H 	 0.224068 	 0.627610 	 4.025794 
H 	 -4.226194 	 6.657774 	 -0.290366 
H 	 -5.258232 	 5.587884 	 -0.786524 
H 	 -1.514447 	 -0.608276 	 -1.108025 
H 	 -0.574897 	 -1.519262 	 -1.803272 
H 	 -0.858871 	 5.777691 	 -5.640593 
H 	 -0.001675 	 6.274246 	 -4.333348 
H 	 -7.437306 	 7.165360 	 6.484151 
H 	 6.167400 	 -6.899612 	 6.116917 
H 	 2.871576 	 -0.344819 	 1.270516 
H 	 3.001180 	 -0.363323 	 -0.299309 
H 	 -0.087445 	 6.367960 	 -2.229112 
H 	 0.577740 	 -7.153782 	 -2.458534 
H 	 -3.475665 	 -3.497450 	 -2.878018 
H 	 -3.369807 	 -2.367808 	 -1.750507 
H 	 0.224991 	 -1.572153 	 -4.463979 
H 	 -0.717850 	 -0.666381 	 -5.324791 
H 	 -3.144419 	 1.851180 	 -1.531891 
H 	 -3.704068 	 0.457827 	 -1.111341 
H 	 6.701687 	 0.551211 	 6.007940 
H 	 7.233873 	 1.820103 	 5.215948 
H 	 -6.350216 	 -1.072041 	 -6.340367 
H 	 -5.896879 	 -0.483886 	 -4.933761 
H 	 -6.942782 	 6.411914 	 -6.452687 
H 	 -6.004354 	 5.690751 	 7.252002 
H 	 -7.313431 	 -4.213524 	 -3.437572 
H 	 7.084646 	 -3.754606 	 -4.784594 
H 	 -5.961310 	 4.281357 	 -3.926645 
H 	 -5.398103 	 4.439705 	 -5.311673 
H 	 6.479034 	 -0.034458 	 -0.771812 
H 	 -6.982058 	 -0.300876 	 -0.236866 
H 	 -3.257014 	 3.950676 	 0.125930 
H 	 -7.165649 	 3.304686 	 3.417552 
H 	 4.613875 	 -4.036073 	 -4.614444 
H 	 4.021334 	 -5.444631 	 -4.511504 
H 	 0.326757 	 -4.318715 	 -3.131860 
H 	 -0.815386 	 -3.648404 	 -3.755189 
H 	 -1.814402 	 3.190603 	 -7.134604 
H 	 -1.636678 	 3.080936 	 6.317042 
H 	 -5.282803 	 -5.563054 	 1.930630 
H 	 -5.174162 	 -4.956384 	 0.491727 
H 	 -6.864922 	 4.276429 	 4.528594 
O 	 2.941118 	 -5.490109 	 0.394365 
O 	 -0.058820 	 5.735055 	 5.371630 
O 	 4.739166 	 -6.292127 	 6.929169 
O 	 0.817969 	 -5.510700 	 -1.696872 
O 	 3.801780 	 -7.181345 	 -4.587590 
O 	 1.900620 	 7.046173 	 -6.649693 
O 	 6.142775 	 5.201025 	 -1.096356 
O 	 3.907200 	 0.657650 	 -6.669798 
O 	 6.069804 	 6.671371 	 3.549446 
O 	 5.122557 	 -1.586606 	 -5.827614 
O 	 -1.549803 	 -4.924671 	 -0.126319 
O 	 6.572956 	 1.512268 	 -6.095191 
O 	 -2.587622 	 -1.219531 	 -6.006736 
O 	 2.012384 	 1.452280 	 -4.686293 
O 	 -5.092826 	 -5.191286 	 3.781973 
O 	 1.824188 	 -5.083267 	 -6.486124 
O 	 -2.143192 	 6.565115 	 -7.223410 
O 	 4.523555 	 3.901030 	 4.284056 
O 	 7.245411 	 2.931648 	 1.816938 
O 	 -4.109940 	 2.107895 	 2.959854 
O 	 -7.233114 	 -3.477134 	 2.179567 
O 	 -3.171904 	 -0.595780 	 3.136104 
O 	 2.334834 	 6.436587 	 0.133487 
O 	 4.630410 	 -4.430713 	 -1.438504 
O 	 -3.074568 	 5.194194 	 -3.281761 
O 	 -4.335912 	 -4.800648 	 -7.091333 
O 	 -6.915292 	 -2.140918 	 7.145493 
O 	 -4.451630 	 -3.128905 	 1.240162 
O 	 2.850155 	 -1.850642 	 4.898343 
O 	 1.954771 	 3.555566 	 2.441015 
O 	 -0.946790 	 -5.889568 	 6.700475 
O 	 2.301342 	 3.986994 	 -5.395354 
O 	 0.784702 	 -6.803924 	 2.571651 
O 	 3.137595 	 1.189639 	 5.337646 
O 	 3.581000 	 5.698568 	 -2.551761 
O 	 -0.605441 	 6.202582 	 -0.328333 
O 	 4.383187 	 4.956789 	 1.226955 
O 	 -3.838780 	 6.396439 	 3.196783 
O 	 -4.316400 	 3.256742 	 -6.065222 
O 	 -0.347027 	 0.275794 	 6.241941 
O 	 -5.042879 	 -2.619000 	 5.107869 
O 	 -0.914184 	 2.500765 	 -4.580515 
O 	 5.204687 	 -1.181246 	 -3.072381 
O 	 1.517478 	 -5.482850 	 5.593251 
O 	 -4.896525 	 1.094941 	 6.799073 
O 	 -2.898238 	 -7.255582 	 0.760969 
O 	 4.679288 	 -3.589921 	 6.003891 
O 	 5.795513 	 -0.813145 	 6.196479 
O 	 -6.380087 	 4.262542 	 -0.043440 
O 	 5.473034 	 1.640859 	 -0.201035 
O 	 6.343000 	 -6.671680 	 -1.931520 
O 	 -2.430813 	 -1.532204 	 5.552182 
O 	 -0.509593 	 3.695041 	 1.234297 
O 	 -2.872595 	 -0.636442 	 0.013909 
O 	 -4.322555 	 5.420369 	 6.090137 
O 	 -0.437493 	 -3.773531 	 -6.577482 
O 	 3.400705 	 7.153542 	 3.708868 
O 	 -2.237840 	 -3.766537 	 2.763772 
O 	 -2.255440 	 -6.137696 	 4.109446 
O 	 -3.221647 	 2.963811 	 5.471513 
O 	 -5.598133 	 -1.452534 	 -3.338431 
O 	 -3.160880 	 0.847144 	 -4.370610 
O 	 0.876456 	 -3.444829 	 3.759722 
O 	 -6.802303 	 -0.787277 	 3.452594 
O 	 6.575348 	 -4.926117 	 4.311722 
O 	 -5.917429 	 2.876844 	 -2.958856 
O 	 -5.843513 	 -4.746863 	 -2.762280 
O 	 3.585493 	 2.770045 	 -2.798605 
O 	 3.793595 	 -4.313968 	 2.809465 
O 	 -6.552185 	 6.468615 	 1.710702 
O 	 7.255116 	 -3.263501 	 -0.696552 
O 	 1.615606 	 -1.535482 	 7.276696 
O 	 6.176802 	 3.500216 	 6.960129 
O 	 -2.537653 	 -6.446588 	 -5.038847 
O 	 6.178278 	 5.387412 	 -4.249088 
O 	 6.679861 	 -6.966423 	 -5.195966 
O 	 -2.079102 	 3.232308 	 -1.450473 
O 	 -1.047463 	 6.195757 	 2.836687 
O 	 2.442313 	 -1.376718 	 -1.733604 
O 	 -5.313957 	 -7.200099 	 -3.575461 
O 	 -6.386991 	 0.711500 	 1.145743 
O 	 1.570064 	 3.432071 	 5.703978 
O 	 6.220132 	 1.828550 	 -3.483856 
O 	 -7.438511 	 -4.956634 	 -6.929845 
O 	 4.577983 	 5.108803 	 -6.480028 
O 	 0.834479 	 2.065032 	 -1.544464 
O 	 -2.600413 	 -3.535659 	 -4.654631 
O 	 -0.595280 	 0.996691 	 0.945547 
O 	 0.600223 	 -2.447632 	 0.691679 
O 	 0.731825 	 0.747055 	 3.196200 
O 	 -4.754343 	 6.389694 	 -1.039900 
O 	 -0.574405 	 -0.629879 	 -1.348898 
O 	 -0.065940 	 5.573567 	 -5.102453 
O 	 7.122329 	 -7.047312 	 5.820354 
O 	 3.164592 	 0.252362 	 0.525265 
O 	 0.253934 	 6.972269 	 -2.956328 
O 	 -3.420688 	 -3.336086 	 -1.883919 
O 	 0.127763 	 -0.682294 	 -4.862697 
O 	 -3.833073 	 1.153651 	 -1.797202 
O 	 -7.384342 	 0.916796 	 5.530070 
O 	 -6.042795 	 -0.246733 	 -5.856831 
O 	 -6.938531 	 5.876399 	 -7.269881 
O 	 6.821907 	 -3.814024 	 -3.838482 
O 	 -5.887447 	 4.988113 	 -4.658617 
O 	 7.292963 	 -0.608478 	 -0.987072 
O 	 -3.792360 	 4.200553 	 0.907899 
O 	 3.773093 	 -4.496413 	 -4.581821 
O 	 0.063464 	 -3.447638 	 -3.462159 
O 	 -1.085443 	 2.994197 	 7.099064 
O 	 -5.285232 	 -5.781399 	 0.969620 
O 	 -6.770735 	 3.338622 	 4.339204 
K 	 3.075120 	 5.980730 	 5.965343 
