333
conformation = 43
H 	 2.953745 	 -6.447503 	 0.497261 
H 	 2.896135 	 -5.214788 	 1.278355 
H 	 -0.622729 	 5.458354 	 5.996287 
H 	 0.601384 	 5.005812 	 5.074405 
H 	 4.688963 	 -6.461300 	 -6.993379 
H 	 4.527821 	 -5.361502 	 6.855378 
H 	 0.204069 	 -5.248654 	 -1.113738 
H 	 1.717843 	 -5.583995 	 -1.136886 
H 	 3.839004 	 7.126877 	 -3.904979 
H 	 3.361781 	 7.177937 	 -5.340629 
H 	 1.169638 	 6.583473 	 -6.396974 
H 	 1.730990 	 -6.894525 	 -6.671127 
H 	 7.040603 	 4.942336 	 -0.717193 
H 	 6.419946 	 6.208303 	 -1.243282 
H 	 3.346244 	 0.847823 	 -6.001950 
H 	 4.891880 	 0.935483 	 -6.540158 
H 	 6.818186 	 6.755550 	 2.754674 
H 	 6.410017 	 -7.631831 	 4.188901 
H 	 4.841226 	 -0.840401 	 -6.405257 
H 	 6.096462 	 -1.795350 	 -6.150776 
H 	 -2.046098 	 -5.596588 	 0.040506 
H 	 -2.077801 	 -4.322293 	 -0.794147 
H 	 7.453879 	 0.977284 	 -6.171562 
H 	 6.579240 	 2.268500 	 -6.808353 
H 	 -2.897546 	 -1.119258 	 -6.953501 
H 	 -2.889774 	 -0.467659 	 -5.543478 
H 	 1.438619 	 0.668203 	 -4.345086 
H 	 2.736752 	 1.669091 	 -4.075065 
H 	 -4.043284 	 -5.500642 	 3.854915 
H 	 -4.969031 	 -4.335644 	 4.154936 
H 	 1.125580 	 -4.615811 	 -6.323559 
H 	 2.642594 	 -4.676117 	 -6.156152 
H 	 -1.789307 	 -7.475548 	 7.157965 
H 	 -2.941946 	 6.405328 	 7.038238 
H 	 5.300215 	 4.073642 	 4.779913 
H 	 4.485365 	 2.911361 	 4.319812 
H 	 -7.123082 	 3.481840 	 0.889055 
H 	 6.455888 	 2.766679 	 1.345642 
H 	 -5.003180 	 2.433616 	 3.171819 
H 	 -3.895622 	 2.672985 	 2.105430 
H 	 7.409184 	 -3.413029 	 1.100633 
H 	 -7.396986 	 -2.546156 	 2.409742 
H 	 -3.611960 	 0.252257 	 2.829148 
H 	 -3.714486 	 -1.273372 	 2.668630 
H 	 2.683806 	 5.751513 	 0.586570 
H 	 1.363104 	 6.336788 	 0.068298 
H 	 4.117037 	 -4.409523 	 -2.380764 
H 	 4.117555 	 -4.736454 	 -0.851368 
H 	 -3.650118 	 5.025185 	 -4.038610 
H 	 -3.734905 	 5.592357 	 -2.697921 
H 	 -4.298011 	 -5.656568 	 -6.709719 
H 	 -5.113322 	 -4.622227 	 7.335883 
H 	 -6.145571 	 -2.188840 	 6.377397 
H 	 -7.000577 	 -3.126127 	 7.271495 
H 	 -3.748014 	 -3.428445 	 1.925977 
H 	 -5.278770 	 -3.118727 	 1.496679 
H 	 2.159354 	 -1.914866 	 4.260926 
H 	 2.556087 	 -1.865092 	 5.716472 
H 	 2.821657 	 3.394054 	 1.953734 
H 	 2.203090 	 4.160946 	 3.145165 
H 	 -0.928085 	 -5.114059 	 7.228665 
H 	 -0.027780 	 -5.737890 	 6.260973 
H 	 2.097563 	 3.070371 	 -5.238488 
H 	 1.624083 	 4.575432 	 -5.213847 
H 	 1.029560 	 -6.763742 	 3.453001 
H 	 0.309640 	 -7.530502 	 2.327437 
H 	 2.750633 	 0.486550 	 4.814995 
H 	 3.503158 	 0.867041 	 6.210047 
H 	 4.389161 	 5.378428 	 -2.239863 
H 	 3.061125 	 5.937314 	 -1.780492 
H 	 -0.596720 	 5.354785 	 0.049432 
H 	 -1.375877 	 6.697755 	 -0.170549 
H 	 4.999089 	 4.630141 	 1.901605 
H 	 5.032403 	 5.216831 	 0.390184 
H 	 -4.725608 	 6.506123 	 2.909976 
H 	 -3.671011 	 5.525958 	 2.687724 
H 	 -3.989192 	 2.487593 	 -5.553817 
H 	 -4.428256 	 2.725517 	 -6.981008 
H 	 -0.502837 	 1.159038 	 6.699520 
H 	 -1.108794 	 -0.131380 	 6.010047 
H 	 -5.334108 	 -1.846102 	 4.390733 
H 	 -4.173943 	 -2.373377 	 5.298908 
H 	 -0.690103 	 3.490700 	 -4.704704 
H 	 -0.049404 	 2.155608 	 -4.437462 
H 	 5.307197 	 -1.367741 	 -4.150743 
H 	 5.675733 	 -1.812688 	 -2.692654 
H 	 1.986299 	 -5.344332 	 6.295584 
H 	 1.506663 	 -4.734305 	 4.890134 
H 	 -5.000998 	 0.696315 	 -7.241292 
H 	 -5.589843 	 1.018951 	 6.305379 
H 	 -2.595507 	 7.189255 	 1.566535 
H 	 -3.660380 	 -6.742928 	 0.853776 
H 	 4.122442 	 -3.085317 	 5.201310 
H 	 5.502682 	 -3.921568 	 5.271963 
H 	 6.473865 	 -1.634058 	 6.153612 
H 	 5.068433 	 -1.275733 	 5.727025 
H 	 -4.689661 	 4.100698 	 0.484453 
H 	 -6.252230 	 3.872055 	 -1.032700 
H 	 4.562996 	 1.193664 	 -0.107983 
H 	 5.384136 	 2.284908 	 -1.009422 
H 	 7.193443 	 -6.145125 	 -2.043824 
H 	 5.659779 	 -6.079340 	 -2.114907 
H 	 -1.886355 	 -2.381877 	 5.575599 
H 	 -2.449694 	 -1.129358 	 4.582247 
H 	 -0.680052 	 2.804419 	 0.965522 
H 	 0.428493 	 3.498774 	 1.772447 
H 	 -2.106447 	 -0.149737 	 0.438209 
H 	 -3.285429 	 -1.342658 	 0.485004 
H 	 -3.870825 	 4.552379 	 5.759671 
H 	 -4.145972 	 6.025816 	 5.107093 
H 	 -0.174069 	 -2.860596 	 -6.809807 
H 	 -1.262197 	 -3.709165 	 -6.018898 
H 	 3.002626 	 -7.274386 	 3.022612 
H 	 4.402263 	 6.886440 	 3.239574 
H 	 -1.996968 	 -4.715480 	 3.002553 
H 	 -1.621935 	 -3.757596 	 1.823007 
H 	 -2.373647 	 -7.074710 	 3.813381 
H 	 -1.881566 	 -6.075985 	 4.983183 
H 	 -3.458291 	 2.598344 	 4.486200 
H 	 -3.697381 	 2.294724 	 5.989728 
H 	 -5.876849 	 -1.017541 	 -2.692664 
H 	 -6.061991 	 -2.340667 	 -3.598957 
H 	 -2.379586 	 1.416925 	 -4.419870 
H 	 -3.349937 	 0.807458 	 -3.448455 
H 	 1.071458 	 -3.309411 	 2.685366 
H 	 0.030465 	 -3.415256 	 3.885494 
H 	 -7.282246 	 -0.323942 	 4.009129 
H 	 -6.867184 	 -0.333259 	 2.518434 
H 	 7.175181 	 -4.869392 	 3.334037 
H 	 7.146309 	 -5.431727 	 4.757140 
H 	 -6.793697 	 2.511577 	 -3.042734 
H 	 -5.311275 	 2.106903 	 -2.921440 
H 	 -5.136052 	 -4.237965 	 -2.307218 
H 	 -5.543017 	 -5.604168 	 -3.098328 
H 	 4.609491 	 2.425695 	 -3.105293 
H 	 3.482499 	 3.625836 	 -3.101315 
H 	 3.477044 	 -3.725643 	 3.412063 
H 	 4.578716 	 -4.768844 	 3.052413 
H 	 -6.483850 	 5.678163 	 1.031463 
H 	 -6.441702 	 -7.613890 	 1.106806 
H 	 6.439998 	 -3.659641 	 -1.031078 
H 	 7.225072 	 -2.252290 	 -0.918345 
H 	 1.176412 	 -0.738980 	 7.114451 
H 	 2.474949 	 -1.150728 	 -7.170368 
H 	 7.004416 	 3.977641 	 6.936596 
H 	 5.534814 	 4.085554 	 7.410023 
H 	 -2.391086 	 -7.341886 	 -5.685810 
H 	 -2.836896 	 -6.729930 	 -4.274449 
H 	 7.225978 	 5.297178 	 -4.475682 
H 	 6.090803 	 5.488894 	 -3.407195 
H 	 7.203466 	 -7.113346 	 -4.457106 
H 	 5.837608 	 -7.202255 	 -4.983036 
H 	 -1.116978 	 3.068086 	 -1.623546 
H 	 -2.347252 	 3.759300 	 -2.274532 
H 	 -1.180797 	 5.428384 	 2.186798 
H 	 -0.703349 	 5.823002 	 3.658734 
H 	 3.377067 	 -1.498856 	 -2.389135 
H 	 2.604192 	 -2.154436 	 -1.171411 
H 	 -5.232891 	 7.150252 	 -2.826281 
H 	 -5.397165 	 6.966868 	 -4.316624 
H 	 -6.949363 	 1.554373 	 1.274393 
H 	 -5.522496 	 0.957393 	 1.289558 
H 	 2.138500 	 2.708604 	 5.490360 
H 	 0.965178 	 3.288127 	 6.441046 
H 	 6.495631 	 1.835942 	 -4.518512 
H 	 6.121251 	 0.915286 	 -3.390080 
H 	 -7.321786 	 -5.528993 	 7.053789 
H 	 7.020914 	 -5.530625 	 -6.374156 
H 	 3.763030 	 4.886466 	 -6.067340 
H 	 5.255292 	 5.358939 	 -5.838473 
H 	 1.760471 	 2.294196 	 -1.968465 
H 	 0.793043 	 1.082980 	 -1.885532 
H 	 -2.796044 	 -2.746904 	 -5.204055 
H 	 -3.133709 	 -4.300408 	 -5.260608 
H 	 -0.119679 	 0.702718 	 1.585993 
H 	 0.249772 	 1.185485 	 0.284595 
H 	 0.332237 	 -1.845476 	 -0.008923 
H 	 0.568649 	 -3.408803 	 0.216418 
H 	 1.175698 	 1.687279 	 3.105687 
H 	 0.214518 	 0.823046 	 3.821731 
H 	 -3.971420 	 6.814268 	 -0.538819 
H 	 -5.053377 	 5.630283 	 -0.589369 
H 	 -1.505063 	 -0.742573 	 -1.265998 
H 	 -0.284869 	 -1.395603 	 -2.099067 
H 	 -0.731854 	 5.938684 	 -5.822653 
H 	 -0.023213 	 6.217861 	 -4.406014 
H 	 7.372340 	 7.233624 	 6.465529 
H 	 6.233026 	 -6.531519 	 6.147571 
H 	 2.969641 	 -0.441051 	 1.013846 
H 	 2.968647 	 -0.055538 	 -0.479490 
H 	 -0.074281 	 6.477302 	 -2.268846 
H 	 0.417511 	 -7.059182 	 -2.692038 
H 	 -3.050397 	 -3.275977 	 -2.857480 
H 	 -3.470646 	 -2.398389 	 -1.614741 
H 	 0.190055 	 -1.500214 	 -4.478323 
H 	 -0.748730 	 -0.712035 	 -5.403619 
H 	 -3.168746 	 1.990242 	 -1.757534 
H 	 -3.531435 	 0.547313 	 -1.202544 
H 	 6.689968 	 0.439815 	 5.633917 
H 	 -7.415610 	 1.792515 	 5.085245 
H 	 -6.338469 	 -0.958939 	 -6.545973 
H 	 -5.953775 	 -0.659225 	 -5.055207 
H 	 -6.720378 	 6.163820 	 -6.478128 
H 	 -5.952565 	 5.783175 	 7.209874 
H 	 -7.226966 	 -4.178229 	 -3.527814 
H 	 7.206896 	 -3.758745 	 -4.909063 
H 	 -5.911194 	 4.328154 	 -4.089375 
H 	 -5.515389 	 4.523447 	 -5.576636 
H 	 6.486632 	 -0.021881 	 -1.010555 
H 	 -7.156706 	 -0.253764 	 -0.199225 
H 	 -3.145780 	 4.411792 	 0.199001 
H 	 -7.132607 	 3.366011 	 3.318017 
H 	 4.556021 	 -3.901928 	 -4.748138 
H 	 4.081959 	 -5.437221 	 -4.665083 
H 	 0.438365 	 -4.168427 	 -3.100281 
H 	 -0.732845 	 -3.615151 	 -4.060745 
H 	 -1.537497 	 3.005182 	 -7.074689 
H 	 -1.646753 	 2.991778 	 6.266300 
H 	 -5.404221 	 -5.306734 	 1.716500 
H 	 -5.394898 	 -4.987601 	 0.315028 
H 	 -6.501044 	 4.175356 	 4.558612 
O 	 2.995520 	 -5.481953 	 0.315165 
O 	 -0.059516 	 5.712483 	 5.204234 
O 	 4.769868 	 -6.331724 	 6.962763 
O 	 0.943806 	 -5.502241 	 -1.700067 
O 	 3.867042 	 -7.192952 	 -4.701830 
O 	 1.954598 	 7.026447 	 -6.732497 
O 	 6.248981 	 5.241757 	 -1.225747 
O 	 3.971440 	 0.707066 	 -6.766197 
O 	 6.148789 	 6.687570 	 3.479459 
O 	 5.186974 	 -1.618473 	 -5.885009 
O 	 -1.480337 	 -4.857879 	 -0.236732 
O 	 6.631782 	 1.509880 	 -6.148911 
O 	 -2.593710 	 -1.250238 	 -6.066785 
O 	 2.038654 	 1.364560 	 -4.720292 
O 	 -4.979509 	 -5.249394 	 3.802054 
O 	 1.891358 	 -5.146375 	 -6.555622 
O 	 -2.110896 	 6.598649 	 -7.337242 
O 	 4.525665 	 3.877845 	 4.230885 
O 	 7.326549 	 2.926482 	 1.667403 
O 	 -4.136238 	 2.106540 	 2.843621 
O 	 -7.133226 	 -3.442772 	 2.047250 
O 	 -3.122493 	 -0.594866 	 2.946895 
O 	 2.343398 	 6.417831 	 0.042456 
O 	 4.668454 	 -4.384546 	 -1.571639 
O 	 -3.077677 	 5.216158 	 -3.273365 
O 	 -4.244619 	 -4.768177 	 -7.164590 
O 	 -6.893204 	 -2.131084 	 7.076044 
O 	 -4.348453 	 -3.178418 	 1.148341 
O 	 2.943404 	 -1.809218 	 4.834323 
O 	 1.990317 	 3.537927 	 2.434432 
O 	 -0.949294 	 -5.876844 	 6.658080 
O 	 2.395668 	 3.958150 	 -5.502153 
O 	 0.917561 	 -6.769318 	 2.481724 
O 	 3.239834 	 1.169350 	 5.291718 
O 	 3.540154 	 5.659711 	 -2.649356 
O 	 -0.564124 	 6.197525 	 -0.428267 
O 	 4.430623 	 4.959598 	 1.143843 
O 	 -3.806930 	 6.338701 	 3.196446 
O 	 -4.230665 	 3.272131 	 -6.169552 
O 	 -0.254577 	 0.348124 	 6.166572 
O 	 -5.091471 	 -2.581328 	 4.950347 
O 	 -0.903504 	 2.562625 	 -4.669652 
O 	 5.275807 	 -1.081006 	 -3.162253 
O 	 1.546693 	 -5.531483 	 5.448561 
O 	 -4.726802 	 1.053222 	 6.750496 
O 	 -2.848057 	 -7.278752 	 0.731402 
O 	 4.720220 	 -3.582022 	 5.845651 
O 	 5.842845 	 -0.844559 	 6.097132 
O 	 -6.302981 	 4.247485 	 -0.141606 
O 	 5.485047 	 1.631332 	 -0.312619 
O 	 6.409435 	 -6.722476 	 -1.967899 
O 	 -2.392121 	 -1.531214 	 5.487404 
O 	 -0.337668 	 3.686985 	 1.165213 
O 	 -2.846813 	 -0.635913 	 -0.091126 
O 	 -4.306959 	 5.438059 	 5.940480 
O 	 -0.420833 	 -3.763407 	 -6.631547 
O 	 3.513221 	 7.083252 	 3.611480 
O 	 -2.162402 	 -3.779965 	 2.660982 
O 	 -2.170443 	 -6.134807 	 4.008815 
O 	 -3.213248 	 2.944194 	 5.362961 
O 	 -5.572464 	 -1.502440 	 -3.494434 
O 	 -3.097569 	 0.786292 	 -4.447386 
O 	 0.988484 	 -3.406063 	 3.642019 
O 	 -6.744065 	 -0.837830 	 3.350322 
O 	 6.618214 	 -4.869436 	 4.125449 
O 	 -5.880117 	 2.915606 	 -3.079252 
O 	 -5.803717 	 -4.706216 	 -2.845679 
O 	 3.653919 	 2.660574 	 -2.961720 
O 	 3.808051 	 -4.306298 	 2.663794 
O 	 -6.598053 	 6.462763 	 1.655318 
O 	 7.271023 	 -3.222614 	 -0.776843 
O 	 1.708896 	 -1.545445 	 7.184460 
O 	 6.128087 	 3.513253 	 6.850731 
O 	 -2.408218 	 -6.490441 	 -5.146758 
O 	 6.235336 	 5.373393 	 -4.380737 
O 	 6.732168 	 -6.940160 	 -5.294414 
O 	 -2.026928 	 3.247456 	 -1.466886 
O 	 -0.956852 	 6.169707 	 2.774102 
O 	 2.548488 	 -1.383061 	 -1.842623 
O 	 -5.218507 	 -7.210712 	 -3.668355 
O 	 -6.433161 	 0.708252 	 1.027516 
O 	 1.584976 	 3.506840 	 5.722927 
O 	 6.350147 	 1.850129 	 -3.549123 
O 	 -7.417188 	 -4.925059 	 -7.026440 
O 	 4.600410 	 5.066257 	 -6.551844 
O 	 0.831404 	 2.038961 	 -1.653487 
O 	 -2.589908 	 -3.616424 	 -4.829937 
O 	 -0.595805 	 0.997720 	 0.762555 
O 	 0.708310 	 -2.521267 	 0.628700 
O 	 0.835068 	 0.761179 	 3.097420 
O 	 -4.729239 	 6.429187 	 -1.075827 
O 	 -0.525101 	 -0.720882 	 -1.435089 
O 	 -0.053374 	 5.575035 	 -5.224067 
O 	 7.076174 	 -7.016936 	 5.740296 
O 	 3.245403 	 0.264385 	 0.409856 
O 	 0.354485 	 6.934089 	 -3.053791 
O 	 -3.301316 	 -3.342557 	 -1.906646 
O 	 0.151568 	 -0.695574 	 -5.001778 
O 	 -3.787984 	 1.210965 	 -1.870589 
O 	 -7.335282 	 0.940039 	 5.453554 
O 	 -6.049776 	 -0.249623 	 -5.944181 
O 	 -6.883228 	 5.859835 	 7.514459 
O 	 6.878133 	 -3.818955 	 -4.019170 
O 	 -5.815156 	 5.047847 	 -4.795547 
O 	 7.277649 	 -0.561453 	 -1.017122 
O 	 -3.780318 	 4.169651 	 0.890419 
O 	 3.788073 	 -4.511611 	 -4.677573 
O 	 0.116185 	 -3.417853 	 -3.627895 
O 	 -1.039015 	 2.991178 	 7.000463 
O 	 -5.251854 	 -5.767697 	 0.906377 
O 	 -6.668885 	 3.304912 	 4.184652 
K 	 3.141450 	 5.992107 	 5.853567 
