333
conformation = 53
H 	 2.806032 	 -6.508469 	 0.380583 
H 	 2.913281 	 -5.253562 	 1.247899 
H 	 -0.695217 	 5.435348 	 5.969276 
H 	 0.461270 	 4.869814 	 5.128931 
H 	 4.519111 	 -6.570170 	 -7.030591 
H 	 4.518141 	 -5.408804 	 6.754411 
H 	 0.007109 	 -5.343600 	 -1.204733 
H 	 1.533871 	 -5.711289 	 -1.048374 
H 	 3.666607 	 7.090669 	 -3.886221 
H 	 3.181713 	 -7.680286 	 -5.374943 
H 	 1.099135 	 6.479158 	 -6.353374 
H 	 1.736498 	 -6.931285 	 -6.708437 
H 	 7.038732 	 4.879422 	 -0.787625 
H 	 6.195627 	 6.160211 	 -1.288480 
H 	 3.339273 	 0.985976 	 -6.012091 
H 	 4.814183 	 0.851068 	 -6.474326 
H 	 6.739751 	 6.578667 	 2.804438 
H 	 6.422086 	 7.043446 	 4.341300 
H 	 4.776037 	 -0.870477 	 -6.393931 
H 	 5.967413 	 -1.771277 	 -6.272702 
H 	 -2.064977 	 -5.771273 	 0.043582 
H 	 -2.133627 	 -4.395907 	 -0.858482 
H 	 7.364616 	 0.945752 	 -6.319113 
H 	 6.542006 	 2.209143 	 -6.809455 
H 	 -2.992679 	 -1.193593 	 -7.010904 
H 	 -3.085837 	 -0.521844 	 -5.551739 
H 	 1.436763 	 0.581435 	 -4.442449 
H 	 2.579586 	 1.579374 	 -4.002058 
H 	 -4.140197 	 -5.516139 	 3.896619 
H 	 -5.115381 	 -4.318244 	 3.998631 
H 	 0.974863 	 -4.706078 	 -6.172189 
H 	 2.548749 	 -4.751350 	 -6.061277 
H 	 -1.776541 	 -7.572740 	 7.100612 
H 	 -3.037791 	 6.417652 	 7.057218 
H 	 5.257372 	 4.050267 	 4.738641 
H 	 4.448282 	 2.880465 	 4.395307 
H 	 -7.190293 	 3.471800 	 1.020878 
H 	 6.291519 	 2.820709 	 1.302837 
H 	 -5.034173 	 2.464710 	 3.196788 
H 	 -3.871312 	 2.682150 	 2.119572 
H 	 7.306490 	 -3.440670 	 1.152465 
H 	 7.259350 	 -2.738234 	 2.511010 
H 	 -3.588823 	 0.260833 	 2.902162 
H 	 -3.879328 	 -1.288456 	 2.641674 
H 	 2.615372 	 5.586619 	 0.611426 
H 	 1.307737 	 6.289248 	 0.123514 
H 	 4.042809 	 -4.226038 	 -2.329946 
H 	 3.970886 	 -4.785501 	 -0.800447 
H 	 -3.755615 	 4.803685 	 -4.011349 
H 	 -3.742528 	 5.568937 	 -2.610321 
H 	 -4.386297 	 -5.661761 	 -6.657819 
H 	 -5.274582 	 -4.637559 	 7.438988 
H 	 -6.246477 	 -2.218727 	 6.427392 
H 	 -7.192151 	 -3.051477 	 7.392555 
H 	 -3.779107 	 -3.533962 	 1.760128 
H 	 -5.354382 	 -3.253103 	 1.575291 
H 	 2.021820 	 -2.066926 	 4.288246 
H 	 2.439806 	 -1.899032 	 5.780488 
H 	 2.778978 	 3.369999 	 1.953125 
H 	 2.211234 	 4.076291 	 3.114988 
H 	 -1.054428 	 -5.113115 	 7.250235 
H 	 -0.105573 	 -5.853865 	 6.265222 
H 	 1.963556 	 3.058760 	 -5.157350 
H 	 1.607292 	 4.524903 	 -5.244821 
H 	 0.960360 	 -6.810346 	 3.446086 
H 	 0.128271 	 -7.554279 	 2.354947 
H 	 2.662269 	 0.372113 	 4.845648 
H 	 3.381839 	 0.781845 	 6.166506 
H 	 4.366843 	 5.344693 	 -2.278337 
H 	 3.019303 	 6.004581 	 -1.902222 
H 	 -0.565666 	 5.291726 	 0.134374 
H 	 -1.393750 	 6.711324 	 -0.073990 
H 	 4.873181 	 4.647003 	 1.873421 
H 	 4.876817 	 5.022677 	 0.342693 
H 	 -4.828312 	 6.564683 	 2.967031 
H 	 -3.800811 	 5.494603 	 2.609219 
H 	 -3.885113 	 2.507258 	 -5.667338 
H 	 -4.530448 	 2.848913 	 -7.019410 
H 	 -0.696006 	 0.932593 	 6.792860 
H 	 -1.075517 	 -0.384710 	 6.024659 
H 	 -5.410675 	 -1.937255 	 4.319452 
H 	 -4.301706 	 -2.261763 	 5.317779 
H 	 -0.787524 	 3.467838 	 -4.785932 
H 	 -0.060967 	 2.088908 	 -4.507775 
H 	 5.142413 	 -1.638143 	 -4.019215 
H 	 5.701045 	 -1.850960 	 -2.654858 
H 	 1.878523 	 -5.428191 	 6.360841 
H 	 1.558162 	 -4.713313 	 4.975270 
H 	 -5.132491 	 0.625098 	 -7.329383 
H 	 -5.695944 	 0.972670 	 6.139164 
H 	 -2.676237 	 6.993653 	 1.485002 
H 	 -3.761104 	 -6.771746 	 0.936311 
H 	 4.179161 	 -3.268146 	 5.100996 
H 	 5.424645 	 -3.943355 	 5.444487 
H 	 6.294318 	 -1.649744 	 6.272534 
H 	 4.966121 	 -1.233085 	 5.660653 
H 	 -4.810040 	 4.055534 	 0.506580 
H 	 -6.337989 	 3.755580 	 -1.008677 
H 	 4.519979 	 1.426726 	 0.003396 
H 	 5.353730 	 2.278681 	 -1.007090 
H 	 7.120300 	 -6.205358 	 -2.004922 
H 	 5.634375 	 -6.051086 	 -2.099283 
H 	 -1.882040 	 -2.289084 	 5.597292 
H 	 -2.399936 	 -1.300777 	 4.515796 
H 	 -0.672791 	 2.638756 	 0.998963 
H 	 0.363703 	 3.576422 	 1.617996 
H 	 -2.225760 	 -0.240433 	 0.403489 
H 	 -3.272070 	 -1.418232 	 0.405677 
H 	 -3.862731 	 4.571545 	 5.813664 
H 	 -4.305495 	 5.821859 	 5.148857 
H 	 -0.328171 	 -2.876851 	 -6.962770 
H 	 -1.210978 	 -3.793886 	 -6.019021 
H 	 2.776098 	 -7.336361 	 2.973251 
H 	 4.320349 	 6.951927 	 3.271453 
H 	 -2.084015 	 -4.661121 	 3.134624 
H 	 -1.783818 	 -3.909501 	 1.834446 
H 	 -2.200986 	 -7.138596 	 3.769505 
H 	 -1.958820 	 -6.094732 	 4.922724 
H 	 -3.500736 	 2.525334 	 4.462594 
H 	 -3.740521 	 2.314605 	 5.972050 
H 	 -6.110815 	 -1.092044 	 -2.703235 
H 	 -6.306570 	 -2.259067 	 -3.525928 
H 	 -2.370897 	 1.353215 	 -4.410333 
H 	 -3.402060 	 0.722471 	 -3.490553 
H 	 0.874928 	 -3.173841 	 2.714181 
H 	 -0.075148 	 -3.365261 	 3.860072 
H 	 -7.282984 	 -0.348444 	 4.099152 
H 	 -6.962274 	 -0.346300 	 2.510453 
H 	 7.085369 	 -4.779756 	 3.358454 
H 	 7.028846 	 -5.572500 	 4.682092 
H 	 -6.880134 	 2.532919 	 -3.037301 
H 	 -5.428798 	 2.094705 	 -2.770521 
H 	 -5.270234 	 -4.264028 	 -2.286102 
H 	 -5.568788 	 -5.689787 	 -3.099778 
H 	 4.469851 	 2.415384 	 -3.229835 
H 	 3.391450 	 3.603542 	 -3.111357 
H 	 3.377227 	 -3.815908 	 3.389321 
H 	 4.555935 	 -4.713014 	 3.067915 
H 	 -6.394999 	 5.733014 	 1.011874 
H 	 -6.477016 	 7.187283 	 1.079319 
H 	 6.318809 	 -3.618386 	 -1.053782 
H 	 7.114827 	 -2.272234 	 -0.780513 
H 	 1.044829 	 -0.773644 	 6.991139 
H 	 2.274655 	 -1.289660 	 -7.109754 
H 	 6.935141 	 3.907234 	 6.960694 
H 	 5.497644 	 4.003225 	 7.495617 
H 	 -2.537607 	 -7.272739 	 -5.724279 
H 	 -3.021525 	 -6.762562 	 -4.333481 
H 	 7.080211 	 5.240654 	 -4.601808 
H 	 6.096672 	 5.396670 	 -3.409330 
H 	 7.166720 	 -6.977106 	 -4.459081 
H 	 5.685232 	 -7.073831 	 -5.028634 
H 	 -1.141428 	 2.993747 	 -1.659737 
H 	 -2.408055 	 3.741508 	 -2.247896 
H 	 -1.080776 	 5.342208 	 2.203533 
H 	 -0.910229 	 5.809098 	 3.705275 
H 	 3.336043 	 -1.574438 	 -2.192438 
H 	 2.411218 	 -2.192320 	 -1.283374 
H 	 -5.253813 	 7.072815 	 -2.895876 
H 	 -5.585766 	 7.077885 	 -4.397616 
H 	 -7.031103 	 1.458057 	 1.286503 
H 	 -5.567679 	 0.885250 	 1.268021 
H 	 2.054809 	 2.617681 	 5.575824 
H 	 0.801566 	 3.115389 	 6.301886 
H 	 6.425947 	 1.933934 	 -4.560542 
H 	 6.138329 	 0.818318 	 -3.434110 
H 	 -7.351461 	 -5.357958 	 7.009308 
H 	 6.811482 	 -5.604275 	 -6.522400 
H 	 3.743139 	 4.734924 	 -6.015766 
H 	 5.233768 	 5.428329 	 -5.983165 
H 	 1.574611 	 2.229925 	 -2.061747 
H 	 0.609355 	 1.070415 	 -1.866944 
H 	 -2.949568 	 -2.770670 	 -5.275709 
H 	 -3.260032 	 -4.273282 	 -5.246296 
H 	 -0.351558 	 0.619864 	 1.693542 
H 	 0.081300 	 1.120347 	 0.188005 
H 	 0.284411 	 -1.815524 	 0.046493 
H 	 0.468208 	 -3.286331 	 0.036504 
H 	 1.067383 	 1.631836 	 3.070101 
H 	 0.061729 	 0.617598 	 3.863558 
H 	 -4.171724 	 6.714976 	 -0.437862 
H 	 -5.174987 	 5.527265 	 -0.714335 
H 	 -1.578449 	 -0.681806 	 -1.226504 
H 	 -0.481205 	 -1.519628 	 -1.962475 
H 	 -0.849137 	 5.854248 	 -5.775416 
H 	 -0.103653 	 6.179849 	 -4.460536 
H 	 7.253642 	 -7.679450 	 6.451473 
H 	 6.186079 	 -6.772011 	 6.091875 
H 	 2.865852 	 -0.425935 	 1.092395 
H 	 2.944161 	 -0.185704 	 -0.454354 
H 	 -0.139024 	 6.321247 	 -2.394596 
H 	 0.457563 	 -7.089162 	 -2.665858 
H 	 -3.350586 	 -3.369449 	 -2.911968 
H 	 -3.468601 	 -2.452523 	 -1.775464 
H 	 0.095094 	 -1.607353 	 -4.500220 
H 	 -0.808895 	 -0.751468 	 -5.405516 
H 	 -3.241386 	 1.876370 	 -1.700348 
H 	 -3.639567 	 0.451117 	 -1.198208 
H 	 6.651024 	 0.457627 	 5.765617 
H 	 7.299652 	 1.803365 	 5.054504 
H 	 -6.425593 	 -1.073239 	 -6.481933 
H 	 -6.040158 	 -0.659208 	 -5.004678 
H 	 -6.909131 	 6.259584 	 -6.487947 
H 	 -6.079127 	 5.674935 	 7.171103 
H 	 -7.327274 	 -4.271020 	 -3.477638 
H 	 7.054525 	 -3.752977 	 -4.920395 
H 	 -6.040874 	 4.276817 	 -4.106272 
H 	 -5.540586 	 4.421667 	 -5.495425 
H 	 6.384558 	 -0.092135 	 -0.931814 
H 	 -7.171172 	 -0.388657 	 -0.239313 
H 	 -3.236950 	 4.209122 	 0.084676 
H 	 -7.195011 	 3.293333 	 3.304839 
H 	 4.492754 	 -3.971263 	 -4.707881 
H 	 4.006514 	 -5.508250 	 -4.675025 
H 	 0.294123 	 -4.325770 	 -3.145446 
H 	 -0.870122 	 -3.641735 	 -4.006494 
H 	 -1.742982 	 3.026677 	 -7.143144 
H 	 -1.707938 	 3.016413 	 6.149585 
H 	 -5.454796 	 -5.508407 	 1.878856 
H 	 -5.369272 	 -5.050828 	 0.282563 
H 	 -6.736521 	 4.221272 	 4.524087 
O 	 2.902837 	 -5.524707 	 0.313661 
O 	 -0.130521 	 5.681890 	 5.244066 
O 	 4.687553 	 -6.356245 	 6.908420 
O 	 0.817839 	 -5.550988 	 -1.740754 
O 	 3.766804 	 -7.227513 	 -4.684961 
O 	 1.853555 	 6.992851 	 -6.730066 
O 	 6.129065 	 5.173910 	 -1.205290 
O 	 3.868966 	 0.635577 	 -6.763393 
O 	 6.043122 	 6.637294 	 3.468310 
O 	 5.082843 	 -1.642968 	 -5.898787 
O 	 -1.586423 	 -4.937050 	 -0.224432 
O 	 6.533046 	 1.463869 	 -6.159814 
O 	 -2.657243 	 -1.286190 	 -6.075040 
O 	 1.955379 	 1.364605 	 -4.749777 
O 	 -5.103047 	 -5.266774 	 3.756225 
O 	 1.787155 	 -5.164689 	 -6.564814 
O 	 -2.196284 	 6.532637 	 -7.316957 
O 	 4.450037 	 3.847976 	 4.214465 
O 	 7.225182 	 2.877925 	 1.697461 
O 	 -4.193363 	 2.057333 	 2.860674 
O 	 -7.246981 	 -3.504786 	 2.071575 
O 	 -3.217801 	 -0.638107 	 2.995207 
O 	 2.269468 	 6.385433 	 0.044841 
O 	 4.581471 	 -4.452825 	 -1.549160 
O 	 -3.145217 	 5.162140 	 -3.316256 
O 	 -4.358715 	 -4.831009 	 -7.169624 
O 	 -6.969120 	 -2.185110 	 7.062884 
O 	 -4.465583 	 -3.211009 	 1.155518 
O 	 2.833369 	 -1.875476 	 4.825310 
O 	 1.894078 	 3.500897 	 2.395313 
O 	 -1.015142 	 -5.926124 	 6.641849 
O 	 2.281186 	 3.922796 	 -5.491002 
O 	 0.780939 	 -6.835351 	 2.485459 
O 	 3.123925 	 1.134526 	 5.272923 
O 	 3.486994 	 5.631734 	 -2.639700 
O 	 -0.657893 	 6.159364 	 -0.424306 
O 	 4.345692 	 4.916051 	 1.146185 
O 	 -3.883579 	 6.323675 	 3.157928 
O 	 -4.345468 	 3.218017 	 -6.159094 
O 	 -0.370519 	 0.271394 	 6.163349 
O 	 -5.138993 	 -2.654271 	 4.985718 
O 	 -0.983136 	 2.483982 	 -4.666169 
O 	 5.172644 	 -1.163998 	 -3.164124 
O 	 1.462820 	 -5.551287 	 5.474800 
O 	 -4.874720 	 1.024181 	 6.739544 
O 	 -2.939041 	 -7.313864 	 0.707075 
O 	 4.625666 	 -3.628228 	 5.880118 
O 	 5.760375 	 -0.875398 	 6.104553 
O 	 -6.408572 	 4.206314 	 -0.133090 
O 	 5.405975 	 1.585490 	 -0.300481 
O 	 6.307438 	 -6.745558 	 -1.986990 
O 	 -2.483327 	 -1.579249 	 5.478474 
O 	 -0.484721 	 3.645549 	 1.156840 
O 	 -2.924876 	 -0.682313 	 -0.078054 
O 	 -4.382219 	 5.381824 	 5.965637 
O 	 -0.496511 	 -3.817255 	 -6.641254 
O 	 3.396315 	 7.068719 	 3.620200 
O 	 -2.271764 	 -3.822534 	 2.669467 
O 	 -2.277913 	 -6.178911 	 4.014054 
O 	 -3.287944 	 2.908109 	 5.378379 
O 	 -5.640963 	 -1.523578 	 -3.467983 
O 	 -3.201671 	 0.762249 	 -4.448930 
O 	 0.873591 	 -3.477555 	 3.664941 
O 	 -6.838860 	 -0.854820 	 3.356665 
O 	 6.529262 	 -4.945405 	 4.176430 
O 	 -5.963028 	 2.851988 	 -3.067739 
O 	 -5.888103 	 -4.768959 	 -2.845569 
O 	 3.552149 	 2.670269 	 -2.926581 
O 	 3.729147 	 -4.355046 	 2.692883 
O 	 -6.651192 	 6.417080 	 1.645347 
O 	 7.195460 	 -3.287770 	 -0.783162 
O 	 1.598633 	 -1.586586 	 7.188771 
O 	 6.078855 	 3.460982 	 6.859502 
O 	 -2.535399 	 -6.521515 	 -5.136216 
O 	 6.140327 	 5.337836 	 -4.356722 
O 	 6.637835 	 -7.000521 	 -5.283260 
O 	 -2.121319 	 3.194910 	 -1.496840 
O 	 -1.063909 	 6.141749 	 2.769341 
O 	 2.421582 	 -1.422794 	 -1.830743 
O 	 -5.332641 	 -7.253621 	 -3.663722 
O 	 -6.482759 	 0.671339 	 1.043102 
O 	 1.512543 	 3.430513 	 5.672407 
O 	 6.220830 	 1.791689 	 -3.559606 
O 	 -7.499261 	 -4.994050 	 -7.019534 
O 	 4.519197 	 5.037212 	 -6.549773 
O 	 0.768639 	 2.008005 	 -1.643655 
O 	 -2.655193 	 -3.629006 	 -4.782248 
O 	 -0.654888 	 0.950874 	 0.810429 
O 	 0.587446 	 -2.532452 	 0.620701 
O 	 0.720700 	 0.713768 	 3.102236 
O 	 -4.810650 	 6.367628 	 -1.094386 
O 	 -0.624501 	 -0.721725 	 -1.429301 
O 	 -0.125331 	 5.530438 	 -5.201147 
O 	 7.029944 	 -7.075301 	 5.732990 
O 	 3.140058 	 0.207831 	 0.423514 
O 	 0.235742 	 6.905029 	 -3.040908 
O 	 -3.426288 	 -3.385761 	 -1.929899 
O 	 0.072011 	 -0.731103 	 -4.978835 
O 	 -3.877516 	 1.139327 	 -1.875155 
O 	 -7.433643 	 0.877229 	 5.453603 
O 	 -6.113639 	 -0.292049 	 -5.942060 
O 	 -6.976375 	 5.820078 	 -7.368271 
O 	 6.784898 	 -3.866684 	 -3.973910 
O 	 -5.916575 	 4.973823 	 -4.769450 
O 	 7.216243 	 -0.628746 	 -1.041650 
O 	 -3.854834 	 4.139135 	 0.856196 
O 	 3.711599 	 -4.554179 	 -4.672362 
O 	 0.026416 	 -3.479603 	 -3.590585 
O 	 -1.131188 	 2.947236 	 7.011096 
O 	 -5.335029 	 -5.808881 	 0.892253 
O 	 -6.787177 	 3.270965 	 4.219744 
K 	 3.041358 	 5.941236 	 5.864250 
