333
conformation = 49
H 	 2.826265 	 -6.552618 	 0.445874 
H 	 2.869248 	 -5.328024 	 1.263769 
H 	 -0.701590 	 5.384545 	 5.973505 
H 	 0.470909 	 4.885191 	 5.102594 
H 	 4.547967 	 -6.592098 	 -7.020288 
H 	 4.496635 	 -5.471357 	 6.797078 
H 	 0.028595 	 -5.355007 	 -1.162458 
H 	 1.575341 	 -5.733496 	 -1.082270 
H 	 3.693735 	 7.044955 	 -3.900008 
H 	 3.218598 	 7.130663 	 -5.359949 
H 	 1.065077 	 6.426171 	 -6.366036 
H 	 1.715814 	 -6.986081 	 -6.705592 
H 	 7.029963 	 4.839409 	 -0.746541 
H 	 6.246470 	 6.113434 	 -1.271252 
H 	 3.316609 	 0.871451 	 -6.012373 
H 	 4.802038 	 0.803119 	 -6.497442 
H 	 6.741995 	 6.577604 	 2.763525 
H 	 6.370615 	 7.062143 	 4.295963 
H 	 4.774145 	 -0.917944 	 -6.394692 
H 	 6.001506 	 -1.847617 	 -6.227069 
H 	 -2.087870 	 -5.762293 	 0.040941 
H 	 -2.136743 	 -4.426960 	 -0.835613 
H 	 7.371243 	 0.890610 	 -6.264747 
H 	 6.520292 	 2.155074 	 -6.780260 
H 	 -2.996103 	 -1.225059 	 -7.005664 
H 	 -3.056728 	 -0.547558 	 -5.546785 
H 	 1.419535 	 0.578432 	 -4.406571 
H 	 2.606102 	 1.546901 	 -4.040910 
H 	 -4.144046 	 -5.560756 	 3.881899 
H 	 -5.086555 	 -4.363084 	 4.060487 
H 	 0.992615 	 -4.729289 	 -6.214845 
H 	 2.552460 	 -4.777048 	 -6.103569 
H 	 -1.831367 	 -7.605181 	 7.106659 
H 	 -2.993117 	 6.380489 	 7.063982 
H 	 5.260836 	 3.991176 	 4.768946 
H 	 4.448246 	 2.815318 	 4.371884 
H 	 -7.216902 	 3.405921 	 0.996103 
H 	 6.291250 	 2.744647 	 1.306245 
H 	 -5.046317 	 2.388856 	 3.188969 
H 	 -3.896290 	 2.638310 	 2.079096 
H 	 7.312205 	 -3.481978 	 1.157569 
H 	 7.305941 	 -2.731577 	 2.459224 
H 	 -3.634679 	 0.223546 	 2.870833 
H 	 -3.882554 	 -1.383243 	 2.637155 
H 	 2.603427 	 5.558637 	 0.612909 
H 	 1.287533 	 6.232284 	 0.112151 
H 	 4.025869 	 -4.346581 	 -2.371374 
H 	 4.003213 	 -4.821503 	 -0.824099 
H 	 -3.746794 	 4.822969 	 -4.016030 
H 	 -3.799157 	 5.529327 	 -2.625630 
H 	 -4.380328 	 -5.684167 	 -6.695644 
H 	 -5.239481 	 -4.685031 	 7.394530 
H 	 -6.245040 	 -2.259639 	 6.420835 
H 	 -7.157594 	 -3.148586 	 7.351383 
H 	 -3.789131 	 -3.547321 	 1.817907 
H 	 -5.349722 	 -3.265139 	 1.530383 
H 	 2.048328 	 -2.064574 	 4.287513 
H 	 2.443327 	 -1.953863 	 5.779959 
H 	 2.754668 	 3.320856 	 1.971766 
H 	 2.187491 	 4.058208 	 3.135117 
H 	 -1.031253 	 -5.145373 	 7.258689 
H 	 -0.127434 	 -5.859762 	 6.283834 
H 	 1.970453 	 2.992859 	 -5.173502 
H 	 1.591908 	 4.470582 	 -5.230077 
H 	 0.963977 	 -6.856019 	 3.437346 
H 	 0.160100 	 -7.607107 	 2.330970 
H 	 2.657746 	 0.361322 	 4.829698 
H 	 3.380835 	 0.770221 	 6.135814 
H 	 4.317840 	 5.302917 	 -2.275885 
H 	 3.003765 	 5.925331 	 -1.844172 
H 	 -0.598961 	 5.292784 	 0.087261 
H 	 -1.393965 	 6.629351 	 -0.120242 
H 	 4.884895 	 4.566643 	 1.893755 
H 	 4.891150 	 5.042234 	 0.345576 
H 	 -4.837208 	 6.473561 	 2.941992 
H 	 -3.797919 	 5.439165 	 2.630786 
H 	 -3.964805 	 2.468175 	 -5.659518 
H 	 -4.523145 	 2.728392 	 -7.028945 
H 	 -0.652627 	 0.954815 	 6.768629 
H 	 -1.134055 	 -0.372464 	 6.006638 
H 	 -5.405507 	 -1.947219 	 4.336040 
H 	 -4.305782 	 -2.363114 	 5.307512 
H 	 -0.772363 	 3.431219 	 -4.758781 
H 	 -0.124505 	 2.075479 	 -4.489277 
H 	 5.178434 	 -1.608198 	 -4.031108 
H 	 5.654158 	 -1.906219 	 -2.677760 
H 	 1.888424 	 -5.472566 	 6.350337 
H 	 1.501527 	 -4.775667 	 4.934437 
H 	 -5.120229 	 0.586689 	 -7.283278 
H 	 -5.697143 	 0.928678 	 6.186556 
H 	 -2.670621 	 7.004543 	 1.475006 
H 	 -3.760722 	 -6.815722 	 0.889822 
H 	 4.146723 	 -3.270396 	 5.127735 
H 	 5.390766 	 -3.981213 	 5.392113 
H 	 6.315344 	 -1.713334 	 6.219569 
H 	 4.955608 	 -1.332274 	 5.674461 
H 	 -4.787015 	 4.009942 	 0.516918 
H 	 -6.344741 	 3.743431 	 -1.025461 
H 	 4.507514 	 1.280181 	 -0.036861 
H 	 5.343273 	 2.218123 	 -1.003405 
H 	 7.114026 	 -6.237963 	 -2.023904 
H 	 5.621123 	 -6.127554 	 -2.113730 
H 	 -1.898670 	 -2.409025 	 5.611196 
H 	 -2.445376 	 -1.282288 	 4.542704 
H 	 -0.683441 	 2.654519 	 0.997931 
H 	 0.373881 	 3.463261 	 1.696192 
H 	 -2.229957 	 -0.274525 	 0.385492 
H 	 -3.316814 	 -1.456069 	 0.428611 
H 	 -3.885582 	 4.490034 	 5.799585 
H 	 -4.277896 	 5.859205 	 5.118276 
H 	 -0.310953 	 -2.930160 	 -6.912885 
H 	 -1.245908 	 -3.828830 	 -6.036773 
H 	 2.827172 	 -7.383062 	 3.016306 
H 	 4.322630 	 6.855578 	 3.267424 
H 	 -2.075298 	 -4.737996 	 3.087608 
H 	 -1.762990 	 -3.914221 	 1.840007 
H 	 -2.298125 	 -7.169188 	 3.791744 
H 	 -1.974216 	 -6.149555 	 4.923982 
H 	 -3.519824 	 2.489843 	 4.491086 
H 	 -3.758311 	 2.249577 	 5.982477 
H 	 -6.049564 	 -1.140540 	 -2.715290 
H 	 -6.251690 	 -2.342536 	 -3.552658 
H 	 -2.397901 	 1.330425 	 -4.393590 
H 	 -3.393237 	 0.706080 	 -3.481124 
H 	 0.922063 	 -3.275775 	 2.687062 
H 	 -0.047281 	 -3.444253 	 3.876246 
H 	 -7.304044 	 -0.427878 	 4.036479 
H 	 -6.969954 	 -0.412537 	 2.523327 
H 	 7.087399 	 -4.888518 	 3.351952 
H 	 7.052475 	 -5.593577 	 4.732130 
H 	 -6.897062 	 2.455917 	 -3.032418 
H 	 -5.436261 	 2.041388 	 -2.832251 
H 	 -5.266598 	 -4.303276 	 -2.294343 
H 	 -5.612814 	 -5.713441 	 -3.098239 
H 	 4.467989 	 2.343799 	 -3.175287 
H 	 3.375272 	 3.556618 	 -3.100934 
H 	 3.392368 	 -3.849944 	 3.389958 
H 	 4.541288 	 -4.796848 	 3.067477 
H 	 -6.448910 	 5.651820 	 1.011396 
H 	 -6.500813 	 7.139855 	 1.091044 
H 	 6.311788 	 -3.714164 	 -1.050475 
H 	 7.136521 	 -2.337812 	 -0.822127 
H 	 1.054113 	 -0.788152 	 7.042329 
H 	 2.299671 	 -1.295801 	 -7.149695 
H 	 6.908608 	 3.858005 	 6.956246 
H 	 5.500979 	 3.968598 	 7.460216 
H 	 -2.513157 	 -7.352827 	 -5.711162 
H 	 -2.968154 	 -6.792359 	 -4.337700 
H 	 7.079824 	 5.201843 	 -4.556877 
H 	 6.050830 	 5.373882 	 -3.402110 
H 	 7.154782 	 -7.093026 	 -4.456742 
H 	 5.684772 	 -7.176641 	 -5.007817 
H 	 -1.137775 	 2.956867 	 -1.650318 
H 	 -2.426471 	 3.676413 	 -2.257535 
H 	 -1.161304 	 5.296124 	 2.163618 
H 	 -0.861871 	 5.737276 	 3.729486 
H 	 3.305315 	 -1.628007 	 -2.239786 
H 	 2.471393 	 -2.231731 	 -1.258688 
H 	 -5.279003 	 7.015805 	 -2.847820 
H 	 -5.559365 	 6.960817 	 -4.392105 
H 	 -7.041114 	 1.433616 	 1.287503 
H 	 -5.583992 	 0.851425 	 1.278092 
H 	 2.056592 	 2.582101 	 5.542846 
H 	 0.839334 	 3.121693 	 6.340089 
H 	 6.423472 	 1.844623 	 -4.531656 
H 	 6.093723 	 0.771396 	 -3.414724 
H 	 -7.371211 	 -5.463286 	 7.045783 
H 	 6.846385 	 -5.629627 	 -6.474397 
H 	 3.707461 	 4.741604 	 -6.039560 
H 	 5.184177 	 5.324956 	 -5.983041 
H 	 1.634863 	 2.198182 	 -2.044556 
H 	 0.651307 	 1.011250 	 -1.875188 
H 	 -2.930359 	 -2.830872 	 -5.249946 
H 	 -3.240753 	 -4.323816 	 -5.247585 
H 	 -0.303568 	 0.582492 	 1.656199 
H 	 0.109248 	 1.090208 	 0.233578 
H 	 0.270528 	 -1.882732 	 0.015198 
H 	 0.472616 	 -3.401875 	 0.092383 
H 	 1.070243 	 1.582448 	 3.081683 
H 	 0.074631 	 0.627455 	 3.843145 
H 	 -4.154014 	 6.681587 	 -0.492662 
H 	 -5.146634 	 5.510456 	 -0.670606 
H 	 -1.561097 	 -0.748963 	 -1.238637 
H 	 -0.425868 	 -1.555192 	 -2.020825 
H 	 -0.836609 	 5.833656 	 -5.794183 
H 	 -0.112062 	 6.149268 	 -4.424552 
H 	 7.253390 	 -7.730255 	 6.470345 
H 	 6.216507 	 -6.752403 	 6.098189 
H 	 2.864633 	 -0.507661 	 1.088314 
H 	 2.916587 	 -0.200093 	 -0.516688 
H 	 -0.160313 	 6.288739 	 -2.339128 
H 	 0.410872 	 -7.144434 	 -2.685087 
H 	 -3.272767 	 -3.382427 	 -2.922875 
H 	 -3.500321 	 -2.480879 	 -1.724201 
H 	 0.087003 	 -1.635472 	 -4.489852 
H 	 -0.808238 	 -0.802699 	 -5.397828 
H 	 -3.244128 	 1.872542 	 -1.730996 
H 	 -3.629422 	 0.421370 	 -1.202252 
H 	 6.626966 	 0.377477 	 5.719109 
H 	 7.338320 	 1.761942 	 5.049289 
H 	 -6.435709 	 -1.113568 	 -6.517706 
H 	 -6.052174 	 -0.718687 	 -5.041005 
H 	 -6.863419 	 6.168895 	 -6.479861 
H 	 -6.021126 	 5.649147 	 7.176844 
H 	 -7.363627 	 -4.280639 	 -3.517466 
H 	 7.076293 	 -3.807014 	 -4.925804 
H 	 -6.039506 	 4.223569 	 -4.088764 
H 	 -5.570128 	 4.402888 	 -5.523344 
H 	 6.351140 	 -0.111872 	 -0.959887 
H 	 -7.184731 	 -0.407741 	 -0.194694 
H 	 -3.235023 	 4.235569 	 0.132380 
H 	 -7.205634 	 3.251352 	 3.298219 
H 	 4.459926 	 -4.009906 	 -4.718433 
H 	 4.000614 	 -5.542947 	 -4.676953 
H 	 0.314250 	 -4.323128 	 -3.130390 
H 	 -0.821416 	 -3.669199 	 -4.020913 
H 	 -1.717078 	 2.956369 	 -7.084359 
H 	 -1.695401 	 2.947773 	 6.189400 
H 	 -5.480397 	 -5.485163 	 1.841596 
H 	 -5.413173 	 -5.104038 	 0.303941 
H 	 -6.682125 	 4.129354 	 4.538103 
O 	 2.904742 	 -5.567405 	 0.312810 
O 	 -0.136044 	 5.630721 	 5.229730 
O 	 4.685480 	 -6.407272 	 6.928068 
O 	 0.832906 	 -5.594665 	 -1.726612 
O 	 3.770505 	 -7.274668 	 -4.690641 
O 	 1.858513 	 6.946473 	 -6.731195 
O 	 6.138901 	 5.137347 	 -1.213805 
O 	 3.874228 	 0.601158 	 -6.763667 
O 	 6.049491 	 6.595838 	 3.473628 
O 	 5.086657 	 -1.693435 	 -5.894339 
O 	 -1.581434 	 -4.970268 	 -0.228837 
O 	 6.536467 	 1.421189 	 -6.157241 
O 	 -2.665592 	 -1.335640 	 -6.071283 
O 	 1.952189 	 1.302732 	 -4.738706 
O 	 -5.090128 	 -5.323203 	 3.772645 
O 	 1.792493 	 -5.219479 	 -6.561466 
O 	 -2.199698 	 6.494486 	 -7.324438 
O 	 4.442734 	 3.799495 	 4.219067 
O 	 7.233082 	 2.834520 	 1.686170 
O 	 -4.206187 	 2.012842 	 2.856834 
O 	 -7.237934 	 -3.543648 	 2.062801 
O 	 -3.213490 	 -0.682536 	 2.978540 
O 	 2.264365 	 6.337937 	 0.043304 
O 	 4.580725 	 -4.489887 	 -1.555136 
O 	 -3.151660 	 5.120287 	 -3.302334 
O 	 -4.351001 	 -4.871873 	 -7.166586 
O 	 -6.973417 	 -2.225410 	 7.066426 
O 	 -4.456611 	 -3.262293 	 1.153824 
O 	 2.840753 	 -1.912829 	 4.827137 
O 	 1.895687 	 3.452653 	 2.407260 
O 	 -1.022500 	 -5.970907 	 6.646539 
O 	 2.291000 	 3.875074 	 -5.495521 
O 	 0.797187 	 -6.873180 	 2.485137 
O 	 3.134570 	 1.084000 	 5.282852 
O 	 3.475655 	 5.580027 	 -2.644006 
O 	 -0.658444 	 6.111607 	 -0.423895 
O 	 4.344800 	 4.871667 	 1.145251 
O 	 -3.885417 	 6.269213 	 3.172618 
O 	 -4.335590 	 3.176368 	 -6.159255 
O 	 -0.360306 	 0.239208 	 6.164747 
O 	 -5.153279 	 -2.690328 	 4.973605 
O 	 -0.984917 	 2.448379 	 -4.666581 
O 	 5.177760 	 -1.194159 	 -3.165286 
O 	 1.460976 	 -5.604326 	 5.464829 
O 	 -4.852285 	 0.973942 	 6.743182 
O 	 -2.937883 	 -7.363529 	 0.718968 
O 	 4.627927 	 -3.672506 	 5.866892 
O 	 5.760969 	 -0.923439 	 6.102984 
O 	 -6.402422 	 4.159614 	 -0.135989 
O 	 5.401212 	 1.541310 	 -0.305602 
O 	 6.311254 	 -6.798017 	 -1.979572 
O 	 -2.483605 	 -1.621814 	 5.480131 
O 	 -0.465190 	 3.598255 	 1.158071 
O 	 -2.926749 	 -0.725567 	 -0.081397 
O 	 -4.387495 	 5.340345 	 5.957145 
O 	 -0.501495 	 -3.859235 	 -6.636536 
O 	 3.406201 	 7.014197 	 3.615753 
O 	 -2.265180 	 -3.868419 	 2.665827 
O 	 -2.270379 	 -6.224312 	 4.012414 
O 	 -3.293136 	 2.860405 	 5.371499 
O 	 -5.648298 	 -1.576365 	 -3.477050 
O 	 -3.197951 	 0.707766 	 -4.448647 
O 	 0.882052 	 -3.513487 	 3.658113 
O 	 -6.837657 	 -0.906906 	 3.355478 
O 	 6.528471 	 -4.977777 	 4.156676 
O 	 -5.962296 	 2.814578 	 -3.072785 
O 	 -5.887918 	 -4.808224 	 -2.845694 
O 	 3.558834 	 2.606295 	 -2.940437 
O 	 3.724159 	 -4.397716 	 2.682197 
O 	 -6.664914 	 6.373723 	 1.649312 
O 	 7.191260 	 -3.322526 	 -0.781552 
O 	 1.607950 	 -1.634814 	 7.187453 
O 	 6.064203 	 3.419889 	 6.856705 
O 	 -2.522347 	 -6.572799 	 -5.138365 
O 	 6.144163 	 5.290084 	 -4.366257 
O 	 6.641075 	 -7.039806 	 -5.287383 
O 	 -2.120489 	 3.153206 	 -1.485544 
O 	 -1.056725 	 6.093641 	 2.771105 
O 	 2.434529 	 -1.468936 	 -1.835375 
O 	 -5.323039 	 -7.296046 	 -3.665867 
O 	 -6.497249 	 0.624409 	 1.036811 
O 	 1.505602 	 3.397518 	 5.691610 
O 	 6.236048 	 1.753156 	 -3.557911 
O 	 -7.502158 	 -5.032119 	 -7.023013 
O 	 4.518718 	 4.987128 	 -6.546805 
O 	 0.757286 	 1.958357 	 -1.646281 
O 	 -2.663707 	 -3.686399 	 -4.800087 
O 	 -0.665107 	 0.907239 	 0.792488 
O 	 0.598982 	 -2.588971 	 0.624475 
O 	 0.730396 	 0.670880 	 3.099847 
O 	 -4.812571 	 6.329393 	 -1.085458 
O 	 -0.624530 	 -0.781065 	 -1.429581 
O 	 -0.130729 	 5.484605 	 -5.210034 
O 	 7.012327 	 -7.114144 	 5.734625 
O 	 3.147594 	 0.168701 	 0.420041 
O 	 0.247271 	 6.856637 	 -3.046183 
O 	 -3.413455 	 -3.432363 	 -1.918914 
O 	 0.068211 	 -0.778222 	 -4.988085 
O 	 -3.877350 	 1.103629 	 -1.872891 
O 	 -7.431016 	 0.837765 	 5.454248 
O 	 -6.121605 	 -0.336757 	 -5.940440 
O 	 -6.978369 	 5.773293 	 7.526108 
O 	 6.789385 	 -3.912592 	 -3.988069 
O 	 -5.911273 	 4.940055 	 -4.780223 
O 	 7.207188 	 -0.666654 	 -1.034242 
O 	 -3.860889 	 4.089300 	 0.866261 
O 	 3.708455 	 -4.600218 	 -4.674578 
O 	 0.024804 	 -3.520444 	 -3.605072 
O 	 -1.130763 	 2.902349 	 7.004626 
O 	 -5.336524 	 -5.853171 	 0.895068 
O 	 -6.776656 	 3.223534 	 4.207999 
K 	 3.045359 	 5.898720 	 5.859858 
