333
conformation = 33
H 	 2.857422 	 -6.396375 	 0.429048 
H 	 2.732765 	 -4.902537 	 1.172995 
H 	 -0.709795 	 5.527736 	 5.989837 
H 	 0.419270 	 5.068836 	 5.161768 
H 	 4.682060 	 -6.352791 	 -6.915741 
H 	 4.319348 	 -5.344705 	 6.882061 
H 	 0.151402 	 -5.190160 	 -0.959133 
H 	 1.679423 	 -5.362052 	 -1.140659 
H 	 3.778542 	 7.227508 	 -3.905758 
H 	 3.220491 	 7.279661 	 -5.379539 
H 	 1.017188 	 6.659243 	 -6.335125 
H 	 1.595233 	 -6.843076 	 -6.598958 
H 	 6.879814 	 4.919323 	 -0.676253 
H 	 6.371704 	 6.327176 	 -1.243808 
H 	 3.239871 	 0.820378 	 -6.014690 
H 	 4.695087 	 1.208114 	 -6.515687 
H 	 6.696758 	 6.965011 	 2.756577 
H 	 6.246533 	 -7.371363 	 4.060227 
H 	 4.740874 	 -0.853742 	 -6.446385 
H 	 5.994884 	 -1.709517 	 -6.148758 
H 	 -2.147291 	 -5.426741 	 0.107927 
H 	 -2.231125 	 -4.149807 	 -0.733817 
H 	 7.350716 	 1.077086 	 -6.119961 
H 	 6.502318 	 2.250075 	 -6.851065 
H 	 -3.051125 	 -0.992119 	 -6.954725 
H 	 -2.958412 	 -0.350160 	 -5.450746 
H 	 1.306900 	 0.757809 	 -4.299893 
H 	 2.527631 	 1.752231 	 -4.004490 
H 	 -4.154437 	 -5.481155 	 3.851854 
H 	 -5.107578 	 -4.319150 	 4.351483 
H 	 1.005567 	 -4.492264 	 -6.516295 
H 	 2.523243 	 -4.623212 	 -6.100458 
H 	 -1.947750 	 -7.288389 	 7.258301 
H 	 -2.994801 	 6.338726 	 7.104774 
H 	 5.147251 	 4.130312 	 4.857715 
H 	 4.177586 	 2.983480 	 4.304392 
H 	 -7.215114 	 3.490081 	 0.770803 
H 	 6.315377 	 2.698996 	 1.351710 
H 	 -5.218559 	 2.446450 	 3.121613 
H 	 -4.129634 	 2.837928 	 2.027438 
H 	 7.358674 	 -3.335368 	 1.084922 
H 	 -7.256171 	 -2.406817 	 2.362352 
H 	 -3.878267 	 0.281311 	 2.800616 
H 	 -3.811762 	 -1.303845 	 2.669169 
H 	 2.586362 	 5.913738 	 0.695328 
H 	 1.195823 	 6.472408 	 0.005208 
H 	 4.015836 	 -4.561129 	 -2.406386 
H 	 4.021115 	 -4.661418 	 -0.865317 
H 	 -3.662933 	 5.289665 	 -4.086969 
H 	 -3.923933 	 5.707494 	 -2.593311 
H 	 -4.414425 	 -5.546059 	 -6.806796 
H 	 -5.199747 	 -4.610675 	 7.306540 
H 	 -6.382381 	 -2.037365 	 6.348582 
H 	 -7.126482 	 -3.035473 	 7.243734 
H 	 -4.024878 	 -3.350162 	 1.994695 
H 	 -5.363001 	 -2.926431 	 1.434961 
H 	 2.107350 	 -1.782856 	 4.221495 
H 	 2.334482 	 -1.699395 	 5.744153 
H 	 2.642836 	 3.551758 	 1.943065 
H 	 2.046154 	 4.297627 	 3.180897 
H 	 -1.139118 	 -5.006250 	 7.300130 
H 	 -0.258414 	 -5.769067 	 6.192412 
H 	 2.030833 	 3.099765 	 -5.415705 
H 	 1.465933 	 4.586760 	 -5.290995 
H 	 0.803073 	 -6.603269 	 3.453349 
H 	 0.284554 	 -7.444176 	 2.340377 
H 	 2.678565 	 0.520586 	 4.908501 
H 	 3.343937 	 0.963959 	 6.187965 
H 	 4.188035 	 5.467810 	 -2.234126 
H 	 2.777467 	 5.884252 	 -1.824680 
H 	 -0.849700 	 5.417969 	 -0.080741 
H 	 -1.520020 	 6.727125 	 -0.274043 
H 	 4.869827 	 4.763727 	 1.928896 
H 	 4.990450 	 5.393183 	 0.533883 
H 	 -4.861459 	 6.581456 	 2.859098 
H 	 -3.644896 	 5.584967 	 2.803114 
H 	 -4.407594 	 2.772632 	 -5.420271 
H 	 -4.606147 	 2.737034 	 -6.935355 
H 	 -0.471721 	 1.436774 	 6.475390 
H 	 -1.311347 	 0.210003 	 6.068479 
H 	 -5.553268 	 -1.659620 	 4.404194 
H 	 -4.348320 	 -2.385832 	 5.189929 
H 	 -0.857076 	 3.667749 	 -4.613588 
H 	 -0.283254 	 2.258063 	 -4.380369 
H 	 5.215728 	 -0.971178 	 -4.114898 
H 	 5.497044 	 -1.742987 	 -2.784324 
H 	 1.874769 	 -5.091629 	 6.201380 
H 	 1.292900 	 -4.706514 	 4.821719 
H 	 -4.965863 	 0.790312 	 -7.179696 
H 	 -5.724437 	 1.125188 	 6.413870 
H 	 -2.838166 	 -7.361534 	 1.683875 
H 	 -3.821108 	 -6.662300 	 0.886701 
H 	 3.879978 	 -2.941193 	 5.466266 
H 	 5.184777 	 -3.771875 	 5.080779 
H 	 6.448569 	 -1.410318 	 6.144353 
H 	 4.878365 	 -1.222956 	 5.771823 
H 	 -4.785874 	 4.212055 	 0.422095 
H 	 -6.345980 	 3.951256 	 -1.035858 
H 	 4.585449 	 1.074712 	 -0.251568 
H 	 5.064843 	 2.316618 	 -1.009108 
H 	 7.041012 	 -6.038897 	 -2.045720 
H 	 5.509478 	 -6.079594 	 -2.002548 
H 	 -2.147035 	 -2.359033 	 5.285111 
H 	 -2.734009 	 -1.121295 	 4.609311 
H 	 -0.937975 	 3.041879 	 0.948317 
H 	 0.293599 	 3.555187 	 1.865060 
H 	 -2.347046 	 -0.119134 	 0.487412 
H 	 -3.463129 	 -1.128247 	 0.560299 
H 	 -4.168864 	 4.638273 	 5.634628 
H 	 -4.201027 	 6.108249 	 5.087049 
H 	 -0.186228 	 -2.782093 	 -6.617514 
H 	 -1.390811 	 -3.568717 	 -6.052277 
H 	 3.014073 	 -7.187107 	 2.985667 
H 	 4.288182 	 6.933290 	 3.186614 
H 	 -2.230064 	 -4.658386 	 2.833374 
H 	 -1.732109 	 -3.543871 	 1.848725 
H 	 -2.717198 	 -6.898162 	 3.884924 
H 	 -2.024316 	 -6.027115 	 4.958019 
H 	 -3.569347 	 2.766199 	 4.434234 
H 	 -3.855349 	 2.333764 	 5.910130 
H 	 -6.001241 	 -1.035281 	 -2.701095 
H 	 -6.066622 	 -2.340744 	 -3.491695 
H 	 -2.500449 	 1.547949 	 -4.516402 
H 	 -3.590996 	 0.842581 	 -3.529146 
H 	 0.933861 	 -3.449610 	 2.656166 
H 	 -0.079563 	 -3.414530 	 3.706773 
H 	 -7.358267 	 -0.238875 	 3.949423 
H 	 -6.851080 	 -0.255616 	 2.520178 
H 	 7.022293 	 -4.704519 	 3.274076 
H 	 7.026443 	 -5.243634 	 4.762252 
H 	 -6.937090 	 2.564050 	 -3.123260 
H 	 -5.351957 	 2.326022 	 -3.037762 
H 	 -5.154056 	 -4.254753 	 -2.365641 
H 	 -5.614515 	 -5.437174 	 -3.153238 
H 	 4.506644 	 2.616365 	 -3.060154 
H 	 3.454206 	 3.657101 	 -3.151595 
H 	 3.348447 	 -3.651598 	 3.393551 
H 	 4.345472 	 -4.789190 	 3.040974 
H 	 -6.890771 	 5.795506 	 1.052920 
H 	 -6.587366 	 -7.538781 	 1.157018 
H 	 6.283849 	 -3.571941 	 -1.056631 
H 	 6.984799 	 -2.198655 	 -1.049632 
H 	 0.924880 	 -0.708969 	 7.131776 
H 	 2.416157 	 -1.126351 	 -7.232110 
H 	 6.758367 	 4.157717 	 6.873413 
H 	 5.284424 	 4.166747 	 7.330371 
H 	 -2.478129 	 -7.295304 	 -5.604934 
H 	 -2.835389 	 -6.689155 	 -4.289262 
H 	 7.073401 	 5.384923 	 -4.377818 
H 	 5.879408 	 5.584688 	 -3.436140 
H 	 7.117327 	 -7.105529 	 -4.513337 
H 	 5.735951 	 -7.305422 	 -5.106595 
H 	 -1.221653 	 3.126147 	 -1.589898 
H 	 -2.413772 	 3.910955 	 -2.216512 
H 	 -1.413401 	 5.434059 	 2.277364 
H 	 -0.721869 	 5.870371 	 3.664542 
H 	 3.132748 	 -1.313549 	 -2.532128 
H 	 2.561452 	 -1.998993 	 -1.155003 
H 	 -5.407431 	 -7.466401 	 -2.698425 
H 	 -5.370249 	 6.920594 	 -4.221179 
H 	 -7.081798 	 1.667773 	 1.224775 
H 	 -5.682783 	 1.009734 	 1.253511 
H 	 1.948291 	 2.832832 	 5.527853 
H 	 0.949623 	 3.426031 	 6.576975 
H 	 6.293241 	 1.853058 	 -4.522376 
H 	 5.922577 	 1.055786 	 -3.226599 
H 	 7.346208 	 -5.567182 	 7.259479 
H 	 7.172286 	 -5.323624 	 -6.208610 
H 	 3.574904 	 4.877009 	 -6.173324 
H 	 4.928776 	 5.247355 	 -5.735745 
H 	 1.647224 	 2.420265 	 -1.730647 
H 	 0.659513 	 1.150761 	 -1.869720 
H 	 -2.974754 	 -2.680529 	 -5.250805 
H 	 -3.250466 	 -4.246675 	 -5.307357 
H 	 -0.313836 	 0.867990 	 1.579138 
H 	 -0.012188 	 1.289648 	 0.113184 
H 	 0.104351 	 -1.947762 	 -0.033055 
H 	 0.392305 	 -3.415601 	 0.430290 
H 	 1.171283 	 1.739396 	 3.046615 
H 	 0.156239 	 0.959308 	 3.873509 
H 	 -4.061707 	 6.859049 	 -0.645242 
H 	 -5.257392 	 5.862054 	 -0.479043 
H 	 -1.564554 	 -0.908110 	 -1.358841 
H 	 -0.388668 	 -1.185079 	 -2.279053 
H 	 -0.898832 	 6.007565 	 -5.859718 
H 	 -0.161138 	 6.251468 	 -4.416231 
H 	 7.238572 	 7.287626 	 6.364168 
H 	 6.101231 	 -6.578521 	 6.226364 
H 	 2.900276 	 -0.426700 	 0.954905 
H 	 2.710528 	 0.041310 	 -0.499479 
H 	 -0.179910 	 6.677394 	 -2.185698 
H 	 0.261296 	 -6.944686 	 -2.844095 
H 	 -2.930717 	 -3.123718 	 -2.760446 
H 	 -3.699981 	 -2.406859 	 -1.442805 
H 	 0.106629 	 -1.406192 	 -4.458810 
H 	 -0.896609 	 -0.638359 	 -5.381685 
H 	 -3.272962 	 2.084199 	 -1.684142 
H 	 -3.674216 	 0.706296 	 -1.165464 
H 	 6.544508 	 0.626097 	 5.531040 
H 	 7.342211 	 1.952673 	 5.102837 
H 	 -6.479454 	 -0.863873 	 -6.613627 
H 	 -6.018140 	 -0.605979 	 -5.106260 
H 	 -6.941642 	 6.093277 	 -6.440278 
H 	 -6.057288 	 5.902959 	 7.088756 
H 	 -7.419737 	 -4.014535 	 -3.554386 
H 	 7.126949 	 -3.765185 	 -4.958165 
H 	 -5.871492 	 4.435434 	 -4.118449 
H 	 -5.663617 	 4.652234 	 -5.596916 
H 	 6.334899 	 0.169092 	 -1.142404 
H 	 -7.318721 	 0.031646 	 -0.210770 
H 	 -3.279032 	 4.517330 	 0.298950 
H 	 -7.313682 	 3.593957 	 3.335683 
H 	 4.448246 	 -3.894779 	 -4.798198 
H 	 3.938394 	 -5.337192 	 -4.628059 
H 	 0.336167 	 -3.971947 	 -3.068680 
H 	 -0.788781 	 -3.725528 	 -4.011083 
H 	 -1.552966 	 3.034136 	 -6.973644 
H 	 -1.946677 	 3.038166 	 6.415877 
H 	 -5.491917 	 -5.172600 	 1.775167 
H 	 -5.576525 	 -5.018809 	 0.241859 
H 	 -6.509831 	 4.217323 	 4.514148 
O 	 2.860899 	 -5.412596 	 0.340544 
O 	 -0.216306 	 5.788382 	 5.164118 
O 	 4.616298 	 -6.252851 	 7.040474 
O 	 0.848998 	 -5.401718 	 -1.651436 
O 	 3.759369 	 -7.129614 	 -4.712933 
O 	 1.834077 	 7.109018 	 -6.731694 
O 	 6.150956 	 5.377724 	 -1.241458 
O 	 3.844376 	 0.822074 	 -6.772045 
O 	 6.031101 	 6.778904 	 3.487544 
O 	 5.071116 	 -1.563701 	 -5.846162 
O 	 -1.593976 	 -4.716078 	 -0.247044 
O 	 6.498855 	 1.606588 	 -6.124649 
O 	 -2.754568 	 -1.167333 	 -6.048820 
O 	 1.903373 	 1.398524 	 -4.679839 
O 	 -5.071230 	 -5.191496 	 3.863376 
O 	 1.779681 	 -5.087205 	 -6.550400 
O 	 -2.253499 	 6.715916 	 -7.362663 
O 	 4.379514 	 3.947216 	 4.252849 
O 	 7.205111 	 3.035202 	 1.629531 
O 	 -4.318355 	 2.196231 	 2.833498 
O 	 -7.239243 	 -3.320280 	 2.006796 
O 	 -3.243338 	 -0.500687 	 2.894711 
O 	 2.189736 	 6.502899 	 0.031411 
O 	 4.529303 	 -4.264185 	 -1.603346 
O 	 -3.245271 	 5.315245 	 -3.220867 
O 	 -4.341402 	 -4.656596 	 -7.152744 
O 	 -7.028819 	 -2.053744 	 7.091286 
O 	 -4.447597 	 -3.078556 	 1.151622 
O 	 2.840155 	 -1.685503 	 4.839482 
O 	 1.868287 	 3.610902 	 2.499603 
O 	 -1.104680 	 -5.782588 	 6.669870 
O 	 2.277793 	 4.054000 	 -5.504465 
O 	 0.853144 	 -6.645302 	 2.485562 
O 	 3.141164 	 1.268970 	 5.318892 
O 	 3.364356 	 5.730729 	 -2.631405 
O 	 -0.696680 	 6.276149 	 -0.425552 
O 	 4.293632 	 5.041780 	 1.146719 
O 	 -3.974770 	 6.386638 	 3.248493 
O 	 -4.325969 	 3.343762 	 -6.176894 
O 	 -0.358992 	 0.484559 	 6.178779 
O 	 -5.270979 	 -2.457231 	 4.923896 
O 	 -1.049405 	 2.699081 	 -4.670010 
O 	 5.151482 	 -0.939315 	 -3.165051 
O 	 1.400958 	 -5.483243 	 5.422643 
O 	 -4.797942 	 1.122726 	 6.782961 
O 	 -2.978067 	 -7.193933 	 0.761690 
O 	 4.601180 	 -3.494276 	 5.802787 
O 	 5.693328 	 -0.782525 	 6.088935 
O 	 -6.417603 	 4.339058 	 -0.140558 
O 	 5.335372 	 1.717971 	 -0.313945 
O 	 6.292801 	 -6.660665 	 -1.944247 
O 	 -2.528024 	 -1.431575 	 5.525661 
O 	 -0.414615 	 3.787058 	 1.180858 
O 	 -2.997765 	 -0.543656 	 -0.093432 
O 	 -4.461286 	 5.554202 	 5.917867 
O 	 -0.588766 	 -3.652034 	 -6.609355 
O 	 3.410310 	 7.133774 	 3.605020 
O 	 -2.253567 	 -3.694509 	 2.657218 
O 	 -2.288645 	 -6.049656 	 4.021151 
O 	 -3.372456 	 3.015796 	 5.360243 
O 	 -5.724101 	 -1.435795 	 -3.528274 
O 	 -3.217149 	 0.864533 	 -4.429525 
O 	 0.884619 	 -3.277864 	 3.623895 
O 	 -6.879842 	 -0.788263 	 3.345300 
O 	 6.484804 	 -4.746084 	 4.072589 
O 	 -6.033356 	 3.018018 	 -3.078442 
O 	 -5.951311 	 -4.587892 	 -2.834281 
O 	 3.534036 	 2.675615 	 -2.990446 
O 	 3.662746 	 -4.205520 	 2.640226 
O 	 -6.771512 	 6.556882 	 1.672798 
O 	 7.128300 	 -3.118149 	 -0.752731 
O 	 1.613704 	 -1.447549 	 7.200921 
O 	 5.954387 	 3.614116 	 6.846624 
O 	 -2.500439 	 -6.420030 	 -5.150375 
O 	 6.113834 	 5.450609 	 -4.393208 
O 	 6.600396 	 -6.833141 	 -5.291264 
O 	 -2.167249 	 3.356056 	 -1.429331 
O 	 -1.079447 	 6.243455 	 2.768291 
O 	 2.469535 	 -1.302697 	 -1.851397 
O 	 -5.324559 	 -7.140988 	 -3.662704 
O 	 -6.610478 	 0.787582 	 1.025824 
O 	 1.433132 	 3.646526 	 5.786393 
O 	 6.260918 	 1.951157 	 -3.519320 
O 	 7.342207 	 -4.811960 	 -7.037145 
O 	 4.461580 	 5.155161 	 -6.544239 
O 	 0.675771 	 2.108061 	 -1.668201 
O 	 -2.746351 	 -3.567144 	 -4.870959 
O 	 -0.747228 	 1.086049 	 0.719985 
O 	 0.620644 	 -2.474879 	 0.644204 
O 	 0.733258 	 0.867413 	 3.107256 
O 	 -4.866608 	 6.542834 	 -1.055370 
O 	 -0.629953 	 -0.692309 	 -1.445205 
O 	 -0.214352 	 5.665238 	 -5.246249 
O 	 6.882717 	 -6.892711 	 5.776131 
O 	 3.121003 	 0.372859 	 0.396342 
O 	 0.248774 	 7.004298 	 -3.043883 
O 	 -3.391205 	 -3.251586 	 -1.872826 
O 	 0.004963 	 -0.615892 	 -5.021124 
O 	 -3.927645 	 1.339300 	 -1.869676 
O 	 -7.445669 	 1.040259 	 5.464325 
O 	 -6.219603 	 -0.152960 	 -5.945122 
O 	 -6.995948 	 5.948738 	 7.500664 
O 	 6.750643 	 -3.716709 	 -4.072900 
O 	 -5.939340 	 5.175793 	 -4.816422 
O 	 7.113310 	 -0.446244 	 -0.982319 
O 	 -3.934595 	 4.243550 	 0.955475 
O 	 3.636058 	 -4.406270 	 -4.674234 
O 	 -0.016868 	 -3.286690 	 -3.666672 
O 	 -1.154843 	 3.078311 	 6.999609 
O 	 -5.405081 	 -5.680327 	 0.924064 
O 	 -6.758241 	 3.374200 	 4.147820 
K 	 3.021822 	 6.091955 	 5.852428 
