333
conformation = 5
H 	 2.455807 	 -6.293509 	 0.501950 
H 	 3.170733 	 -4.945952 	 1.155945 
H 	 -0.870834 	 6.014331 	 5.838878 
H 	 0.015523 	 4.858348 	 5.334712 
H 	 4.881636 	 -6.065393 	 -6.795435 
H 	 4.575697 	 -5.371933 	 6.806474 
H 	 0.102017 	 -5.284057 	 -1.056896 
H 	 1.636696 	 -5.170056 	 -0.853574 
H 	 3.663031 	 7.144511 	 -3.991490 
H 	 3.189267 	 -7.350303 	 -5.447334 
H 	 1.186411 	 6.793456 	 -6.075381 
H 	 1.688488 	 -6.805555 	 -6.684964 
H 	 7.115190 	 5.059427 	 -1.136497 
H 	 6.496982 	 6.506533 	 -1.401678 
H 	 3.206126 	 1.135735 	 -6.089115 
H 	 4.727860 	 1.250327 	 -6.562725 
H 	 6.885760 	 6.849612 	 2.816260 
H 	 6.445994 	 -7.399414 	 4.077137 
H 	 4.740786 	 -0.996788 	 -6.411214 
H 	 6.030997 	 -1.877685 	 -6.137585 
H 	 -1.905860 	 -5.294331 	 0.167224 
H 	 -2.229340 	 -4.149043 	 -0.770502 
H 	 7.198529 	 0.905367 	 -6.120547 
H 	 6.659280 	 2.278190 	 -6.850291 
H 	 -2.928184 	 -0.945113 	 -6.934612 
H 	 -3.163072 	 -0.354772 	 -5.425293 
H 	 1.360395 	 0.531342 	 -4.674898 
H 	 2.372065 	 1.495113 	 -3.752092 
H 	 -4.019258 	 -5.329434 	 4.245732 
H 	 -5.273148 	 -4.355723 	 4.350351 
H 	 0.955128 	 -4.766217 	 -6.501229 
H 	 2.305867 	 -4.753370 	 -5.764805 
H 	 -1.901580 	 -7.242342 	 7.073438 
H 	 -2.922650 	 6.382451 	 7.044432 
H 	 5.101629 	 3.819640 	 4.994116 
H 	 3.768254 	 3.172711 	 4.412289 
H 	 -7.128321 	 3.695958 	 0.852433 
H 	 6.381817 	 3.000811 	 0.994090 
H 	 -5.258949 	 2.580736 	 3.173432 
H 	 -4.174685 	 3.019191 	 2.121354 
H 	 7.335607 	 -3.056314 	 1.010194 
H 	 -7.239643 	 -2.422286 	 2.445690 
H 	 -3.879722 	 0.283480 	 2.794161 
H 	 -3.725276 	 -1.269497 	 2.540399 
H 	 2.658358 	 6.183374 	 0.703803 
H 	 1.175407 	 6.583123 	 0.078351 
H 	 4.126805 	 -4.350021 	 -2.585773 
H 	 3.945551 	 -4.656409 	 -1.075137 
H 	 -3.475669 	 5.685642 	 -3.965368 
H 	 -4.001603 	 5.774974 	 -2.494325 
H 	 -4.011547 	 -5.519218 	 -7.028344 
H 	 -5.179298 	 -4.637586 	 -7.296530 
H 	 -6.398382 	 -2.257039 	 6.362089 
H 	 -7.237483 	 -2.987924 	 7.355310 
H 	 -3.881705 	 -3.469375 	 1.791609 
H 	 -5.279887 	 -3.080435 	 1.368301 
H 	 2.349203 	 -1.814136 	 4.118109 
H 	 2.261283 	 -1.409467 	 5.625518 
H 	 2.505639 	 3.795081 	 1.899521 
H 	 2.229981 	 4.281670 	 3.348087 
H 	 -1.123396 	 -4.860490 	 7.106638 
H 	 -0.271968 	 -6.001444 	 6.360351 
H 	 2.150421 	 3.135625 	 -5.670012 
H 	 1.416420 	 4.559529 	 -5.647583 
H 	 0.730145 	 -6.291872 	 3.381558 
H 	 0.433438 	 -7.224955 	 2.285538 
H 	 3.280627 	 0.480247 	 5.029436 
H 	 3.587988 	 1.286792 	 6.248112 
H 	 3.985417 	 5.676295 	 -1.901922 
H 	 2.517080 	 6.042114 	 -2.056012 
H 	 -0.820189 	 5.402717 	 -0.229594 
H 	 -1.420346 	 6.719330 	 -0.047711 
H 	 4.726256 	 5.213083 	 2.097156 
H 	 5.091022 	 5.278221 	 0.578726 
H 	 -4.870614 	 6.335601 	 2.801950 
H 	 -3.379275 	 5.830054 	 2.916736 
H 	 -4.645467 	 3.030103 	 -5.388750 
H 	 -4.547941 	 2.659203 	 -6.870543 
H 	 -0.428536 	 1.656543 	 6.315206 
H 	 -1.162606 	 0.346215 	 6.209360 
H 	 -5.833508 	 -1.836487 	 4.103293 
H 	 -4.556972 	 -1.890166 	 5.174951 
H 	 -0.933228 	 3.861541 	 -4.597369 
H 	 -0.246668 	 2.499759 	 -4.401952 
H 	 4.996700 	 -0.642155 	 -4.109759 
H 	 5.625714 	 -1.568177 	 -3.066403 
H 	 1.846133 	 -5.128531 	 6.131768 
H 	 1.327869 	 -4.747934 	 4.736153 
H 	 -4.710256 	 0.497001 	 -7.232091 
H 	 -5.576871 	 0.992170 	 6.527815 
H 	 -2.711186 	 -7.313187 	 1.712274 
H 	 -3.809346 	 -6.551027 	 1.026458 
H 	 3.818388 	 -3.041208 	 5.635434 
H 	 5.137481 	 -3.679521 	 4.901010 
H 	 6.324885 	 -1.262375 	 6.557356 
H 	 5.107260 	 -1.360345 	 5.540300 
H 	 -4.849812 	 4.319352 	 0.598082 
H 	 -6.138353 	 3.820611 	 -0.921241 
H 	 4.787972 	 1.190105 	 0.188556 
H 	 4.625429 	 2.268483 	 -0.739308 
H 	 7.130212 	 -6.058505 	 -2.013558 
H 	 5.671072 	 -6.168205 	 -1.471635 
H 	 -1.974910 	 -2.086915 	 5.049496 
H 	 -2.665059 	 -0.757004 	 4.829232 
H 	 -0.741735 	 3.075264 	 1.098584 
H 	 0.549027 	 3.833720 	 1.664703 
H 	 -2.374732 	 -0.032846 	 0.397023 
H 	 -3.424284 	 -1.031710 	 0.660218 
H 	 -4.202055 	 4.737009 	 5.871970 
H 	 -4.507082 	 5.893176 	 4.872968 
H 	 -0.043980 	 -2.778928 	 -6.444052 
H 	 -1.287013 	 -3.558885 	 -5.880770 
H 	 2.987223 	 -7.302595 	 2.927936 
H 	 4.470468 	 7.201187 	 3.236951 
H 	 -2.038612 	 -4.582604 	 2.846902 
H 	 -1.818804 	 -3.516176 	 1.718138 
H 	 -2.525582 	 -6.972368 	 4.087685 
H 	 -1.924345 	 -5.819335 	 4.936509 
H 	 -3.370552 	 2.876067 	 4.378734 
H 	 -3.882909 	 2.208233 	 5.684847 
H 	 -6.401822 	 -1.080754 	 -3.003863 
H 	 -5.812239 	 -2.416185 	 -3.496882 
H 	 -2.479121 	 1.617091 	 -4.569743 
H 	 -3.400372 	 0.862446 	 -3.490564 
H 	 1.293869 	 -3.524966 	 2.696806 
H 	 -0.013300 	 -3.090037 	 3.260095 
H 	 -7.011783 	 -0.245917 	 4.038946 
H 	 -6.591199 	 -0.245697 	 2.525545 
H 	 6.975089 	 -3.955534 	 3.409955 
H 	 7.169180 	 -5.200695 	 4.349716 
H 	 -6.825894 	 2.557709 	 -3.341399 
H 	 -5.401476 	 2.565213 	 -2.612000 
H 	 -5.007522 	 -4.110217 	 -2.573454 
H 	 -5.653430 	 -4.961389 	 -3.605529 
H 	 4.535842 	 2.536197 	 -3.412670 
H 	 3.352182 	 3.482276 	 -3.338133 
H 	 3.327330 	 -3.690936 	 3.429801 
H 	 4.290603 	 -4.800085 	 2.935526 
H 	 -7.026453 	 5.969579 	 1.005057 
H 	 -6.467745 	 -7.442605 	 1.309512 
H 	 6.236086 	 -3.432194 	 -1.060927 
H 	 6.929218 	 -2.080765 	 -0.710785 
H 	 0.948938 	 -0.753493 	 7.136673 
H 	 2.341931 	 -0.958034 	 -7.000803 
H 	 6.576290 	 4.425504 	 6.731191 
H 	 5.256628 	 4.061638 	 -7.395718 
H 	 -2.455586 	 -7.197150 	 -5.759093 
H 	 -2.688645 	 -6.814929 	 -4.303650 
H 	 7.060433 	 5.144699 	 -4.527722 
H 	 6.046295 	 5.384145 	 -3.387252 
H 	 7.241582 	 -7.086884 	 -4.586802 
H 	 5.961809 	 -7.439070 	 -5.220331 
H 	 -1.255938 	 3.086480 	 -1.449205 
H 	 -2.191935 	 4.176523 	 -2.050706 
H 	 -0.602511 	 5.409186 	 2.305162 
H 	 -0.854099 	 6.170865 	 3.677158 
H 	 3.352297 	 -0.927608 	 -2.420832 
H 	 2.774071 	 -2.132216 	 -1.449436 
H 	 -5.184772 	 -7.282500 	 -2.624711 
H 	 -5.373634 	 6.843034 	 -4.042558 
H 	 -6.957895 	 1.678251 	 1.353426 
H 	 -5.708582 	 0.998650 	 0.727508 
H 	 1.931666 	 2.964157 	 5.695216 
H 	 0.923146 	 3.619094 	 6.709926 
H 	 6.366182 	 1.890399 	 -4.438378 
H 	 6.339765 	 1.068596 	 -3.145770 
H 	 7.094969 	 -5.397174 	 7.264530 
H 	 -7.262520 	 -5.282499 	 -6.303374 
H 	 3.607241 	 4.684843 	 -6.294600 
H 	 4.920924 	 5.112858 	 -5.733000 
H 	 1.529227 	 2.297634 	 -1.240596 
H 	 0.678085 	 1.141384 	 -1.945304 
H 	 -3.049643 	 -2.738739 	 -5.388685 
H 	 -3.185702 	 -4.367496 	 -5.329034 
H 	 -0.112920 	 1.016453 	 1.314847 
H 	 -0.297904 	 1.189196 	 -0.163551 
H 	 0.341209 	 -1.997216 	 -0.018486 
H 	 0.300386 	 -3.462380 	 0.582124 
H 	 1.531755 	 1.649535 	 3.108542 
H 	 0.687071 	 0.913965 	 4.073840 
H 	 -4.188299 	 6.616289 	 -0.332571 
H 	 -5.520255 	 5.985020 	 -0.800809 
H 	 -1.411708 	 -1.052971 	 -1.430768 
H 	 -0.291626 	 -1.197732 	 -2.452146 
H 	 -1.001203 	 5.937240 	 -5.900035 
H 	 -0.249716 	 6.207750 	 -4.524834 
H 	 7.288537 	 7.320313 	 6.075443 
H 	 5.898697 	 -6.830722 	 6.281715 
H 	 3.225572 	 -0.258394 	 1.032103 
H 	 2.854470 	 -0.203470 	 -0.458518 
H 	 -0.012872 	 6.961602 	 -2.082721 
H 	 0.684624 	 -7.005767 	 -2.950225 
H 	 -2.829638 	 -2.935365 	 -2.653816 
H 	 -3.615113 	 -2.479531 	 -1.220081 
H 	 0.211047 	 -1.538876 	 -4.750368 
H 	 -0.904640 	 -0.629768 	 -5.397050 
H 	 -3.241843 	 2.137382 	 -1.558312 
H 	 -3.859786 	 0.745980 	 -1.245882 
H 	 6.731473 	 0.811300 	 5.882858 
H 	 -7.414516 	 2.053698 	 5.163025 
H 	 -6.498138 	 -0.881025 	 -6.570566 
H 	 -6.019393 	 -0.448893 	 -5.130313 
H 	 -6.990552 	 6.167000 	 -6.575728 
H 	 -5.922471 	 5.865811 	 7.180109 
H 	 7.408260 	 -3.842183 	 -3.606386 
H 	 7.194534 	 -3.729976 	 -5.058472 
H 	 -5.850537 	 4.559428 	 -4.187566 
H 	 -5.316466 	 4.886732 	 -5.554826 
H 	 6.405992 	 0.275564 	 -1.311943 
H 	 -7.369898 	 0.216200 	 -0.244955 
H 	 -3.381279 	 3.805716 	 0.491286 
H 	 -7.165591 	 3.592044 	 3.209193 
H 	 4.537186 	 -4.013388 	 -4.918421 
H 	 3.775853 	 -5.313238 	 -4.587240 
H 	 0.628268 	 -3.417462 	 -3.046317 
H 	 -0.446994 	 -3.963721 	 -3.922288 
H 	 -1.149876 	 2.883518 	 -6.883027 
H 	 -2.014727 	 3.206778 	 6.740484 
H 	 -5.438842 	 -5.225742 	 1.822740 
H 	 -5.604312 	 -5.003476 	 0.325874 
H 	 -6.246507 	 4.219710 	 4.379351 
O 	 2.916396 	 -5.426933 	 0.326867 
O 	 -0.198240 	 5.764434 	 5.134442 
O 	 4.547848 	 -6.248132 	 7.240373 
O 	 0.971037 	 -5.287675 	 -1.562861 
O 	 3.879205 	 -7.174865 	 -4.747838 
O 	 1.884695 	 7.122796 	 -6.719255 
O 	 6.241808 	 5.566113 	 -1.268684 
O 	 3.847630 	 0.919060 	 -6.788544 
O 	 6.102189 	 6.834143 	 3.464764 
O 	 5.178594 	 -1.608354 	 -5.775792 
O 	 -1.480907 	 -4.517389 	 -0.236109 
O 	 6.541592 	 1.685606 	 -6.090392 
O 	 -2.781939 	 -1.111456 	 -6.008496 
O 	 1.944111 	 1.296905 	 -4.608155 
O 	 -4.946457 	 -5.236763 	 3.996604 
O 	 1.873920 	 -5.097853 	 -6.596501 
O 	 -2.210738 	 6.789147 	 7.495294 
O 	 4.388645 	 3.922716 	 4.304325 
O 	 7.218481 	 3.125690 	 1.497246 
O 	 -4.440041 	 2.227679 	 2.769169 
O 	 -7.068461 	 -3.181308 	 1.854045 
O 	 -3.191836 	 -0.467932 	 2.776125 
O 	 2.176497 	 6.564637 	 -0.025756 
O 	 4.536506 	 -4.175042 	 -1.690451 
O 	 -3.276058 	 5.378199 	 -3.074191 
O 	 -4.226664 	 -4.573685 	 -7.157038 
O 	 -6.983901 	 -2.069811 	 7.112724 
O 	 -4.353245 	 -2.886129 	 1.154344 
O 	 2.910232 	 -1.503804 	 4.838877 
O 	 1.991408 	 3.609767 	 2.686001 
O 	 -1.170027 	 -5.761055 	 6.636376 
O 	 2.292438 	 4.094795 	 -5.532790 
O 	 1.077582 	 -6.502149 	 2.498686 
O 	 3.222655 	 1.387225 	 5.380498 
O 	 3.309395 	 5.692279 	 -2.571564 
O 	 -0.662192 	 6.285988 	 -0.458099 
O 	 4.329610 	 5.036641 	 1.176986 
O 	 -4.068118 	 6.346559 	 3.366036 
O 	 -4.227165 	 3.344505 	 -6.192212 
O 	 -0.222029 	 0.679271 	 6.175235 
O 	 -5.365507 	 -2.331650 	 4.867559 
O 	 -1.055811 	 2.890841 	 -4.695753 
O 	 5.189042 	 -0.734536 	 -3.189800 
O 	 1.399904 	 -5.528055 	 5.347624 
O 	 -4.654958 	 1.119858 	 6.885741 
O 	 -2.964071 	 -7.082323 	 0.835107 
O 	 4.652833 	 -3.506563 	 5.715707 
O 	 5.653934 	 -0.758059 	 6.057375 
O 	 -6.321818 	 4.401343 	 -0.162364 
O 	 5.348768 	 1.760944 	 -0.370944 
O 	 6.393147 	 -6.685551 	 -1.891480 
O 	 -2.550019 	 -1.412406 	 5.566630 
O 	 -0.347601 	 3.928196 	 1.185637 
O 	 -3.044145 	 -0.506690 	 -0.094695 
O 	 -4.487448 	 5.678607 	 5.864164 
O 	 -0.631086 	 -3.497781 	 -6.586841 
O 	 3.502681 	 7.085938 	 3.511456 
O 	 -2.064714 	 -3.623019 	 2.662532 
O 	 -2.264673 	 -6.051403 	 4.062731 
O 	 -3.425586 	 3.014609 	 5.344284 
O 	 -5.713908 	 -1.458862 	 -3.571158 
O 	 -3.165404 	 0.914788 	 -4.422551 
O 	 0.934497 	 -3.190941 	 3.534970 
O 	 -6.829183 	 -0.823462 	 3.299717 
O 	 6.481710 	 -4.612157 	 3.907726 
O 	 -6.043519 	 3.126243 	 -3.099722 
O 	 -5.881379 	 -4.515055 	 -2.785055 
O 	 3.641004 	 2.583847 	 -3.017445 
O 	 3.668368 	 -4.122465 	 2.592290 
O 	 -6.828343 	 6.637150 	 1.699329 
O 	 7.113476 	 -3.065926 	 -0.711805 
O 	 1.714096 	 -1.400277 	 7.240719 
O 	 5.919408 	 3.701237 	 6.785609 
O 	 -2.368095 	 -6.424902 	 -5.151597 
O 	 6.157886 	 5.452255 	 -4.385762 
O 	 6.668576 	 -6.744613 	 -5.299664 
O 	 -2.127652 	 3.485608 	 -1.341083 
O 	 -1.074048 	 6.222874 	 2.682049 
O 	 2.616444 	 -1.248260 	 -1.907086 
O 	 -5.229479 	 -7.144648 	 -3.629248 
O 	 -6.603060 	 0.787332 	 1.080571 
O 	 1.469324 	 3.800598 	 5.947091 
O 	 6.367843 	 2.027275 	 -3.409798 
O 	 7.414010 	 -4.697474 	 -7.051977 
O 	 4.435211 	 5.191141 	 -6.542134 
O 	 0.647609 	 2.098427 	 -1.721215 
O 	 -2.772673 	 -3.596988 	 -4.955109 
O 	 -0.831265 	 1.120028 	 0.652085 
O 	 0.757477 	 -2.586454 	 0.664893 
O 	 0.842914 	 0.960477 	 3.131685 
O 	 -4.839087 	 6.657400 	 -1.057698 
O 	 -0.468636 	 -0.854237 	 -1.546584 
O 	 -0.260335 	 5.671862 	 -5.315242 
O 	 6.774918 	 -6.743956 	 5.929780 
O 	 3.105128 	 0.431691 	 0.334289 
O 	 0.340484 	 6.997631 	 -3.023629 
O 	 -3.247285 	 -3.226471 	 -1.791034 
O 	 0.006058 	 -0.632629 	 -5.042638 
O 	 -3.926395 	 1.488323 	 -1.873575 
O 	 -7.331922 	 1.126263 	 5.465717 
O 	 -6.268482 	 -0.080782 	 -5.996555 
O 	 -6.916902 	 5.973940 	 7.373398 
O 	 6.753857 	 -3.591117 	 -4.236048 
O 	 -5.851944 	 5.294759 	 -4.848440 
O 	 7.085474 	 -0.340769 	 -0.970424 
O 	 -3.956281 	 4.264985 	 1.138184 
O 	 3.650099 	 -4.319812 	 -4.638057 
O 	 0.000851 	 -3.139530 	 -3.733352 
O 	 -1.078025 	 3.132838 	 7.036843 
O 	 -5.441121 	 -5.729095 	 0.969871 
O 	 -6.603756 	 3.400815 	 4.036497 
K 	 3.093883 	 6.179971 	 5.872341 
