333
conformation = 37
H 	 2.900166 	 -6.378459 	 0.463274 
H 	 2.775365 	 -5.005441 	 1.211305 
H 	 -0.654588 	 5.540349 	 5.957981 
H 	 0.525708 	 5.065316 	 5.107260 
H 	 4.668646 	 -6.361277 	 -6.897717 
H 	 4.393303 	 -5.318987 	 6.887148 
H 	 0.176629 	 -5.167998 	 -1.023569 
H 	 1.723166 	 -5.420514 	 -1.128158 
H 	 3.807439 	 7.218097 	 -3.895093 
H 	 3.273040 	 7.244105 	 -5.376440 
H 	 1.052461 	 6.693510 	 -6.368454 
H 	 1.605652 	 -6.845815 	 -6.619766 
H 	 6.921934 	 4.975294 	 -0.676380 
H 	 6.392809 	 6.321835 	 -1.233471 
H 	 3.253531 	 0.843726 	 -6.015289 
H 	 4.817789 	 1.136277 	 -6.538067 
H 	 6.719089 	 6.934844 	 2.782221 
H 	 6.327772 	 -7.376973 	 4.142131 
H 	 4.763732 	 -0.820741 	 -6.407511 
H 	 6.030920 	 -1.720160 	 -6.126130 
H 	 -2.154973 	 -5.465740 	 0.075435 
H 	 -2.204981 	 -4.183535 	 -0.764182 
H 	 7.388239 	 1.067948 	 -6.116136 
H 	 6.504975 	 2.316641 	 -6.840865 
H 	 -3.007249 	 -1.003752 	 -6.990870 
H 	 -2.919790 	 -0.361424 	 -5.488676 
H 	 1.334280 	 0.763895 	 -4.310933 
H 	 2.635174 	 1.771782 	 -4.051582 
H 	 -4.089391 	 -5.471624 	 3.840462 
H 	 -5.058125 	 -4.301511 	 4.270519 
H 	 1.009124 	 -4.470958 	 -6.435235 
H 	 2.583431 	 -4.589623 	 -6.141808 
H 	 -1.871837 	 -7.292179 	 7.221660 
H 	 -3.022124 	 6.384413 	 7.065794 
H 	 5.195314 	 4.168394 	 4.820493 
H 	 4.291447 	 2.983128 	 4.287234 
H 	 -7.177624 	 3.535934 	 0.784476 
H 	 6.316031 	 2.742919 	 1.344744 
H 	 -5.150352 	 2.478739 	 3.148575 
H 	 -4.050700 	 2.797396 	 2.054829 
H 	 7.368749 	 -3.351705 	 1.091199 
H 	 -7.318402 	 -2.434319 	 2.372213 
H 	 -3.774265 	 0.279285 	 2.805921 
H 	 -3.798741 	 -1.269356 	 2.666262 
H 	 2.666975 	 5.829287 	 0.694914 
H 	 1.269338 	 6.463610 	 0.015387 
H 	 4.040117 	 -4.481716 	 -2.386936 
H 	 4.022932 	 -4.676563 	 -0.833800 
H 	 -3.694288 	 5.218541 	 -4.086237 
H 	 -3.888360 	 5.708083 	 -2.637136 
H 	 -4.391451 	 -5.550179 	 -6.769748 
H 	 -5.189041 	 -4.585116 	 7.302996 
H 	 -6.308883 	 -2.090875 	 6.381792 
H 	 -7.048130 	 -2.992792 	 7.214038 
H 	 -3.946774 	 -3.324707 	 1.966665 
H 	 -5.344694 	 -2.967374 	 1.474448 
H 	 2.101325 	 -1.790176 	 4.229606 
H 	 2.424556 	 -1.749753 	 5.751960 
H 	 2.719375 	 3.495736 	 1.927514 
H 	 2.069013 	 4.274116 	 3.171420 
H 	 -1.062092 	 -4.995205 	 7.295284 
H 	 -0.161076 	 -5.703297 	 6.213539 
H 	 2.049716 	 3.119840 	 -5.331830 
H 	 1.582324 	 4.582137 	 -5.266637 
H 	 0.885923 	 -6.651825 	 3.462875 
H 	 0.289928 	 -7.444760 	 2.349669 
H 	 2.678444 	 0.546781 	 4.844929 
H 	 3.411112 	 0.958393 	 6.220837 
H 	 4.278725 	 5.456515 	 -2.220268 
H 	 2.936344 	 5.919515 	 -1.836232 
H 	 -0.780199 	 5.349020 	 0.021540 
H 	 -1.492684 	 6.749751 	 -0.229843 
H 	 4.897294 	 4.754914 	 1.855568 
H 	 4.992797 	 5.353248 	 0.506222 
H 	 -4.824085 	 6.589000 	 2.880051 
H 	 -3.658412 	 5.568104 	 2.744770 
H 	 -4.241621 	 2.650937 	 -5.476604 
H 	 -4.529413 	 2.772684 	 -6.905537 
H 	 -0.507882 	 1.340607 	 6.567394 
H 	 -1.229293 	 0.136166 	 6.047646 
H 	 -5.487688 	 -1.671759 	 4.385602 
H 	 -4.287095 	 -2.377202 	 5.243797 
H 	 -0.789017 	 3.665370 	 -4.647735 
H 	 -0.153414 	 2.221750 	 -4.386004 
H 	 5.241711 	 -1.072632 	 -4.161966 
H 	 5.564527 	 -1.758409 	 -2.695515 
H 	 1.922985 	 -5.156861 	 6.251768 
H 	 1.359224 	 -4.677681 	 4.850809 
H 	 -5.000227 	 0.815323 	 -7.247203 
H 	 -5.713305 	 1.115076 	 6.378625 
H 	 -2.741400 	 -7.487242 	 1.703054 
H 	 -3.774142 	 -6.654993 	 0.882541 
H 	 3.958013 	 -2.950087 	 5.369719 
H 	 5.304314 	 -3.803529 	 5.202115 
H 	 6.435579 	 -1.441184 	 6.131045 
H 	 4.936468 	 -1.208500 	 5.759202 
H 	 -4.781021 	 4.198990 	 0.422059 
H 	 -6.320414 	 3.960575 	 -1.050614 
H 	 4.602947 	 1.180047 	 -0.209462 
H 	 5.192734 	 2.361503 	 -1.033722 
H 	 7.094522 	 -6.053188 	 -2.047550 
H 	 5.567486 	 -6.062452 	 -2.061739 
H 	 -2.078583 	 -2.298805 	 5.427400 
H 	 -2.628577 	 -1.069243 	 4.600251 
H 	 -0.892692 	 2.925054 	 0.922893 
H 	 0.300045 	 3.579648 	 1.813705 
H 	 -2.279972 	 -0.113592 	 0.458133 
H 	 -3.373293 	 -1.147553 	 0.510013 
H 	 -4.065116 	 4.659153 	 5.689669 
H 	 -4.201391 	 6.064401 	 5.183173 
H 	 -0.173960 	 -2.722400 	 -6.700485 
H 	 -1.317277 	 -3.594098 	 -6.075630 
H 	 2.974994 	 -7.135063 	 2.952057 
H 	 4.323532 	 6.942898 	 3.194820 
H 	 -2.140927 	 -4.638163 	 2.896453 
H 	 -1.698253 	 -3.595978 	 1.856323 
H 	 -2.607918 	 -6.953138 	 3.847643 
H 	 -1.982358 	 -6.014095 	 4.950790 
H 	 -3.557666 	 2.714940 	 4.422760 
H 	 -3.770989 	 2.389418 	 5.921679 
H 	 -5.929896 	 -0.962944 	 -2.695014 
H 	 -6.065345 	 -2.322725 	 -3.569569 
H 	 -2.436686 	 1.557626 	 -4.490527 
H 	 -3.511218 	 0.863776 	 -3.502028 
H 	 0.989972 	 -3.360205 	 2.645901 
H 	 -0.032812 	 -3.383533 	 3.801443 
H 	 -7.372907 	 -0.225055 	 3.983631 
H 	 -6.888674 	 -0.238734 	 2.496917 
H 	 7.091688 	 -4.772396 	 3.280538 
H 	 7.037002 	 -5.252627 	 4.738231 
H 	 -6.856737 	 2.589189 	 -3.078870 
H 	 -5.362947 	 2.271037 	 -3.004365 
H 	 -5.149789 	 -4.214777 	 -2.330825 
H 	 -5.584635 	 -5.511438 	 -3.117496 
H 	 4.563272 	 2.574645 	 -3.060412 
H 	 3.469465 	 3.662773 	 -3.120322 
H 	 3.408031 	 -3.669898 	 3.364103 
H 	 4.428166 	 -4.744911 	 3.043515 
H 	 -6.734918 	 5.788304 	 1.080838 
H 	 -6.551493 	 -7.540025 	 1.163062 
H 	 6.353323 	 -3.574480 	 -1.034740 
H 	 7.076967 	 -2.143430 	 -1.023943 
H 	 1.023582 	 -0.674632 	 7.139744 
H 	 2.393266 	 -1.110380 	 -7.241533 
H 	 6.849694 	 4.095995 	 6.899423 
H 	 5.347823 	 4.197900 	 7.372970 
H 	 -2.455410 	 -7.257813 	 -5.602911 
H 	 -2.841299 	 -6.674342 	 -4.300440 
H 	 7.128520 	 5.391884 	 -4.396767 
H 	 5.967755 	 5.583683 	 -3.458575 
H 	 7.116914 	 -7.099541 	 -4.473804 
H 	 5.783109 	 -7.242757 	 -5.016596 
H 	 -1.141759 	 3.136467 	 -1.613654 
H 	 -2.395555 	 3.852721 	 -2.222445 
H 	 -1.350043 	 5.495385 	 2.245451 
H 	 -0.714837 	 5.890848 	 3.633560 
H 	 3.225460 	 -1.337553 	 -2.509848 
H 	 2.542946 	 -1.962347 	 -1.186913 
H 	 -5.352132 	 -7.542825 	 -2.788534 
H 	 -5.389347 	 6.986006 	 -4.235684 
H 	 -7.022298 	 1.648913 	 1.242703 
H 	 -5.645285 	 1.034968 	 1.280380 
H 	 2.010329 	 2.844719 	 5.493081 
H 	 0.925553 	 3.419356 	 6.549422 
H 	 6.377334 	 1.853461 	 -4.574621 
H 	 5.977416 	 1.031454 	 -3.310042 
H 	 -7.471258 	 -5.515357 	 7.199005 
H 	 7.087402 	 -5.397715 	 -6.275093 
H 	 3.645773 	 4.953767 	 -6.104031 
H 	 5.070013 	 5.348041 	 -5.725269 
H 	 1.623305 	 2.381474 	 -1.820252 
H 	 0.719500 	 1.169288 	 -1.876730 
H 	 -2.893742 	 -2.614127 	 -5.218619 
H 	 -3.214898 	 -4.270050 	 -5.286134 
H 	 -0.197043 	 0.831344 	 1.567185 
H 	 0.122930 	 1.279133 	 0.232920 
H 	 0.207383 	 -1.875562 	 -0.001953 
H 	 0.471322 	 -3.360418 	 0.364360 
H 	 1.146554 	 1.768942 	 3.092765 
H 	 0.134324 	 0.973652 	 3.888466 
H 	 -4.033268 	 6.886891 	 -0.615977 
H 	 -5.172079 	 5.786475 	 -0.515061 
H 	 -1.559470 	 -0.798383 	 -1.320802 
H 	 -0.356372 	 -1.229157 	 -2.200201 
H 	 -0.827552 	 6.020262 	 -5.849371 
H 	 -0.109032 	 6.232559 	 -4.453326 
H 	 7.281888 	 7.335082 	 6.382726 
H 	 6.168755 	 -6.482173 	 6.174560 
H 	 2.909243 	 -0.395842 	 0.956474 
H 	 2.812108 	 0.045550 	 -0.455466 
H 	 -0.132626 	 6.683916 	 -2.240772 
H 	 0.284401 	 -6.937273 	 -2.733819 
H 	 -2.985830 	 -3.170998 	 -2.781343 
H 	 -3.610471 	 -2.418038 	 -1.514904 
H 	 0.139702 	 -1.426503 	 -4.435550 
H 	 -0.840583 	 -0.621391 	 -5.393728 
H 	 -3.258119 	 2.071337 	 -1.727023 
H 	 -3.610911 	 0.667525 	 -1.166314 
H 	 6.632330 	 0.584425 	 5.550302 
H 	 7.395524 	 1.975188 	 5.073744 
H 	 -6.431903 	 -0.854283 	 -6.599318 
H 	 -6.000024 	 -0.603977 	 -5.046803 
H 	 -6.833676 	 6.157261 	 -6.439346 
H 	 -6.046332 	 5.898033 	 7.164121 
H 	 -7.294839 	 -4.066025 	 -3.527352 
H 	 7.177535 	 -3.726786 	 -4.970487 
H 	 -5.904310 	 4.451423 	 -4.130451 
H 	 -5.622166 	 4.632950 	 -5.596564 
H 	 6.377166 	 0.134458 	 -1.080253 
H 	 -7.286944 	 -0.056894 	 -0.218027 
H 	 -3.232243 	 4.539089 	 0.250127 
H 	 -7.255762 	 3.530316 	 3.326420 
H 	 4.476419 	 -3.853805 	 -4.777709 
H 	 4.002095 	 -5.362025 	 -4.640041 
H 	 0.373403 	 -4.035206 	 -3.067453 
H 	 -0.817166 	 -3.641241 	 -4.058494 
H 	 -1.557344 	 3.057013 	 -7.020018 
H 	 -1.888689 	 3.042629 	 6.295882 
H 	 -5.487744 	 -5.128773 	 1.771012 
H 	 -5.523058 	 -4.947962 	 0.297565 
H 	 -6.503423 	 4.260031 	 4.556540 
O 	 2.906709 	 -5.403537 	 0.331788 
O 	 -0.165518 	 5.794327 	 5.183749 
O 	 4.671630 	 -6.249957 	 7.004223 
O 	 0.876253 	 -5.408360 	 -1.671579 
O 	 3.792284 	 -7.117009 	 -4.707114 
O 	 1.876112 	 7.110472 	 -6.731827 
O 	 6.181646 	 5.354272 	 -1.234617 
O 	 3.885836 	 0.810949 	 -6.767175 
O 	 6.068904 	 6.773373 	 3.482260 
O 	 5.108738 	 -1.548006 	 -5.864812 
O 	 -1.554142 	 -4.740003 	 -0.241461 
O 	 6.544934 	 1.601388 	 -6.134193 
O 	 -2.697898 	 -1.166585 	 -6.053609 
O 	 1.948051 	 1.420617 	 -4.695520 
O 	 -5.045016 	 -5.177469 	 3.838937 
O 	 1.816989 	 -5.078161 	 -6.550381 
O 	 -2.204262 	 6.702220 	 -7.350480 
O 	 4.430779 	 3.954002 	 4.246056 
O 	 7.248182 	 3.024640 	 1.650316 
O 	 -4.250224 	 2.194881 	 2.838672 
O 	 -7.206849 	 -3.334432 	 2.026797 
O 	 -3.202794 	 -0.501282 	 2.918163 
O 	 2.239085 	 6.505360 	 0.035897 
O 	 4.579671 	 -4.276147 	 -1.590494 
O 	 -3.182281 	 5.309323 	 -3.241723 
O 	 -4.310202 	 -4.667030 	 -7.155681 
O 	 -6.984287 	 -2.049736 	 7.086984 
O 	 -4.414593 	 -3.087996 	 1.150816 
O 	 2.873883 	 -1.701947 	 4.838250 
O 	 1.908505 	 3.618884 	 2.472456 
O 	 -1.050193 	 -5.786484 	 6.666320 
O 	 2.314227 	 4.051592 	 -5.501723 
O 	 0.868208 	 -6.661536 	 2.483146 
O 	 3.172014 	 1.261844 	 5.308412 
O 	 3.423284 	 5.739297 	 -2.638386 
O 	 -0.649399 	 6.285215 	 -0.429058 
O 	 4.341873 	 5.043951 	 1.147787 
O 	 -3.913227 	 6.404545 	 3.228258 
O 	 -4.297758 	 3.352932 	 -6.175574 
O 	 -0.326534 	 0.462036 	 6.174439 
O 	 -5.204302 	 -2.473647 	 4.936404 
O 	 -1.001585 	 2.676559 	 -4.669316 
O 	 5.193783 	 -0.963458 	 -3.163433 
O 	 1.451556 	 -5.466829 	 5.433857 
O 	 -4.775583 	 1.129234 	 6.771751 
O 	 -2.933255 	 -7.193810 	 0.745035 
O 	 4.641330 	 -3.493905 	 5.818509 
O 	 5.748324 	 -0.774179 	 6.094238 
O 	 -6.380233 	 4.337412 	 -0.139996 
O 	 5.384484 	 1.714937 	 -0.310685 
O 	 6.329649 	 -6.648168 	 -1.952980 
O 	 -2.479263 	 -1.439981 	 5.508991 
O 	 -0.385661 	 3.781639 	 1.179200 
O 	 -2.944360 	 -0.546554 	 -0.090326 
O 	 -4.404875 	 5.543011 	 5.922510 
O 	 -0.531758 	 -3.667486 	 -6.615387 
O 	 3.444966 	 7.146051 	 3.613955 
O 	 -2.227493 	 -3.694988 	 2.658445 
O 	 -2.247758 	 -6.046975 	 4.017695 
O 	 -3.316318 	 3.021800 	 5.366076 
O 	 -5.672891 	 -1.427947 	 -3.511320 
O 	 -3.179095 	 0.865202 	 -4.434315 
O 	 0.917449 	 -3.295412 	 3.633737 
O 	 -6.831649 	 -0.773717 	 3.349673 
O 	 6.531140 	 -4.762444 	 4.098939 
O 	 -5.979679 	 3.010276 	 -3.078427 
O 	 -5.902080 	 -4.598836 	 -2.839291 
O 	 3.570810 	 2.707290 	 -2.978525 
O 	 3.712351 	 -4.210299 	 2.653120 
O 	 -6.709179 	 6.552720 	 1.662580 
O 	 7.176863 	 -3.127320 	 -0.762337 
O 	 1.645112 	 -1.451844 	 7.195058 
O 	 6.018302 	 3.607791 	 6.848518 
O 	 -2.472116 	 -6.414148 	 -5.148979 
O 	 6.153341 	 5.454939 	 -4.387074 
O 	 6.645154 	 -6.840111 	 -5.294357 
O 	 -2.122375 	 3.347522 	 -1.444918 
O 	 -1.037178 	 6.247332 	 2.774311 
O 	 2.493059 	 -1.305560 	 -1.842446 
O 	 -5.290827 	 -7.133834 	 -3.664417 
O 	 -6.547647 	 0.791591 	 1.025790 
O 	 1.487495 	 3.621179 	 5.759826 
O 	 6.288321 	 1.946866 	 -3.528313 
O 	 7.390229 	 -4.822295 	 -7.033245 
O 	 4.508048 	 5.151148 	 -6.550420 
O 	 0.733758 	 2.116564 	 -1.661562 
O 	 -2.691990 	 -3.552854 	 -4.853802 
O 	 -0.697946 	 1.086201 	 0.736681 
O 	 0.644214 	 -2.457801 	 0.636128 
O 	 0.767215 	 0.856247 	 3.099529 
O 	 -4.819441 	 6.531666 	 -1.061315 
O 	 -0.598261 	 -0.666441 	 -1.438600 
O 	 -0.156866 	 5.667333 	 -5.232315 
O 	 6.952936 	 -6.912449 	 5.762994 
O 	 3.164154 	 0.363685 	 0.402429 
O 	 0.282491 	 7.006925 	 -3.049698 
O 	 -3.364965 	 -3.248197 	 -1.887250 
O 	 0.054613 	 -0.611471 	 -5.014087 
O 	 -3.878519 	 1.323138 	 -1.869031 
O 	 -7.413731 	 1.030210 	 5.462461 
O 	 -6.158753 	 -0.157955 	 -5.944940 
O 	 -6.959934 	 5.947278 	 7.506210 
O 	 6.789015 	 -3.722850 	 -4.047265 
O 	 -5.897945 	 5.157086 	 -4.805587 
O 	 7.173233 	 -0.458661 	 -0.994027 
O 	 -3.878383 	 4.248693 	 0.929214 
O 	 3.688457 	 -4.414397 	 -4.675428 
O 	 0.030671 	 -3.305439 	 -3.649314 
O 	 -1.114137 	 3.078672 	 7.004060 
O 	 -5.348954 	 -5.683370 	 0.914252 
O 	 -6.732692 	 3.380189 	 4.163787 
K 	 3.061119 	 6.086099 	 5.852955 
