333
conformation = 29
H 	 2.832946 	 -6.386160 	 0.436220 
H 	 2.755324 	 -4.865865 	 1.157217 
H 	 -0.732985 	 5.551032 	 5.987985 
H 	 0.403019 	 5.022771 	 5.197334 
H 	 4.730568 	 -6.345729 	 -6.883728 
H 	 4.294453 	 -5.330221 	 6.867258 
H 	 0.185169 	 -5.228827 	 -0.953612 
H 	 1.683831 	 -5.316697 	 -1.137901 
H 	 3.767826 	 7.214501 	 -3.906665 
H 	 3.198924 	 7.318973 	 -5.371604 
H 	 1.092880 	 6.638157 	 -6.323545 
H 	 1.647302 	 -6.813677 	 -6.594074 
H 	 6.860140 	 4.909787 	 -0.731947 
H 	 6.395290 	 6.344984 	 -1.254534 
H 	 3.251398 	 0.827454 	 -5.983746 
H 	 4.647942 	 1.272931 	 -6.477955 
H 	 6.684234 	 6.940058 	 2.753604 
H 	 6.204047 	 -7.363341 	 4.041949 
H 	 4.765180 	 -0.883944 	 -6.479041 
H 	 5.971936 	 -1.695862 	 -6.171881 
H 	 -2.099207 	 -5.420481 	 0.149184 
H 	 -2.217335 	 -4.112667 	 -0.722430 
H 	 7.326924 	 1.087536 	 -6.135816 
H 	 6.541724 	 2.224480 	 -6.887159 
H 	 -3.053513 	 -0.977951 	 -6.925617 
H 	 -2.973786 	 -0.379268 	 -5.450962 
H 	 1.291027 	 0.705245 	 -4.282625 
H 	 2.472499 	 1.731299 	 -3.939580 
H 	 -4.134352 	 -5.478238 	 3.885137 
H 	 -5.108333 	 -4.371330 	 4.384605 
H 	 1.031068 	 -4.516603 	 -6.567642 
H 	 2.494873 	 -4.659321 	 -6.041046 
H 	 -1.993395 	 -7.288961 	 7.248398 
H 	 -3.015485 	 6.293820 	 7.068792 
H 	 5.114824 	 4.054423 	 4.872120 
H 	 4.135993 	 3.008264 	 4.347573 
H 	 -7.222791 	 3.461756 	 0.792095 
H 	 6.373215 	 2.688847 	 1.348910 
H 	 -5.252509 	 2.429982 	 3.108738 
H 	 -4.164258 	 2.818889 	 2.084351 
H 	 7.365074 	 -3.287521 	 1.038612 
H 	 -7.196283 	 -2.385685 	 2.356352 
H 	 -3.881303 	 0.250739 	 2.811958 
H 	 -3.743325 	 -1.273784 	 2.684167 
H 	 2.533040 	 5.977984 	 0.707075 
H 	 1.207707 	 6.467171 	 0.026011 
H 	 4.057925 	 -4.584718 	 -2.403566 
H 	 4.047368 	 -4.650751 	 -0.866000 
H 	 -3.618451 	 5.345672 	 -4.102416 
H 	 -3.887366 	 5.685791 	 -2.589180 
H 	 -4.370284 	 -5.593747 	 -6.804362 
H 	 -5.197468 	 -4.603642 	 7.302823 
H 	 -6.387524 	 -1.994260 	 6.311913 
H 	 -7.172773 	 -3.052018 	 7.287256 
H 	 -4.021224 	 -3.388228 	 2.004919 
H 	 -5.384851 	 -2.898213 	 1.397705 
H 	 2.127949 	 -1.791601 	 4.187794 
H 	 2.313665 	 -1.641324 	 5.682821 
H 	 2.654702 	 3.613157 	 1.933487 
H 	 2.082344 	 4.295864 	 3.162575 
H 	 -1.139416 	 -5.040667 	 7.257618 
H 	 -0.257088 	 -5.810779 	 6.180953 
H 	 2.048384 	 3.110821 	 -5.489630 
H 	 1.412930 	 4.577478 	 -5.320629 
H 	 0.779216 	 -6.544342 	 3.459152 
H 	 0.316689 	 -7.429037 	 2.317030 
H 	 2.718250 	 0.486226 	 4.950779 
H 	 3.354280 	 0.953004 	 6.252126 
H 	 4.202224 	 5.467778 	 -2.204746 
H 	 2.701075 	 5.865469 	 -1.843734 
H 	 -0.861789 	 5.373018 	 -0.130209 
H 	 -1.548313 	 6.758262 	 -0.290885 
H 	 4.824754 	 4.791110 	 1.962427 
H 	 4.992230 	 5.411707 	 0.542526 
H 	 -4.844138 	 6.552035 	 2.840002 
H 	 -3.612507 	 5.604863 	 2.838348 
H 	 -4.502890 	 2.830401 	 -5.324428 
H 	 -4.616308 	 2.748614 	 -6.921146 
H 	 -0.397165 	 1.486864 	 6.401426 
H 	 -1.293525 	 0.251059 	 6.089148 
H 	 -5.557223 	 -1.670784 	 4.417316 
H 	 -4.331668 	 -2.347964 	 5.158482 
H 	 -0.879983 	 3.648167 	 -4.589933 
H 	 -0.259510 	 2.245624 	 -4.346250 
H 	 5.236926 	 -0.937741 	 -4.153615 
H 	 5.501555 	 -1.765478 	 -2.875682 
H 	 1.852094 	 -5.065892 	 6.152481 
H 	 1.281669 	 -4.744889 	 4.794256 
H 	 -4.895952 	 0.762359 	 -7.160681 
H 	 -5.679932 	 1.128155 	 6.437437 
H 	 -2.828522 	 -7.306067 	 1.728216 
H 	 -3.819084 	 -6.668591 	 0.846143 
H 	 3.842177 	 -2.933046 	 5.502969 
H 	 5.138854 	 -3.745649 	 4.945146 
H 	 6.464280 	 -1.411732 	 6.170143 
H 	 4.908982 	 -1.244840 	 5.778708 
H 	 -4.776325 	 4.220023 	 0.443428 
H 	 -6.327525 	 3.936849 	 -1.019613 
H 	 4.590857 	 0.991243 	 -0.249964 
H 	 4.984118 	 2.307146 	 -1.007131 
H 	 7.025417 	 -6.027979 	 -2.040979 
H 	 5.500664 	 -6.079346 	 -1.942416 
H 	 -2.190704 	 -2.308650 	 5.212673 
H 	 -2.788163 	 -1.134393 	 4.617452 
H 	 -0.961332 	 3.051174 	 0.971285 
H 	 0.283992 	 3.541456 	 1.844590 
H 	 -2.316592 	 -0.083857 	 0.518012 
H 	 -3.505577 	 -1.115278 	 0.569942 
H 	 -4.217847 	 4.636287 	 5.612967 
H 	 -4.200542 	 6.098462 	 5.059125 
H 	 -0.147594 	 -2.798050 	 -6.555561 
H 	 -1.436142 	 -3.548165 	 -5.996856 
H 	 3.012393 	 -7.176628 	 2.964963 
H 	 4.300823 	 6.923286 	 3.210844 
H 	 -2.255422 	 -4.681098 	 2.792576 
H 	 -1.726456 	 -3.512155 	 1.826657 
H 	 -2.764975 	 -6.901425 	 3.910092 
H 	 -2.012611 	 -6.025579 	 4.999939 
H 	 -3.537721 	 2.798459 	 4.424821 
H 	 -3.890293 	 2.291754 	 5.886471 
H 	 -6.056210 	 -1.076145 	 -2.673864 
H 	 -6.040325 	 -2.366530 	 -3.422820 
H 	 -2.538765 	 1.526444 	 -4.500961 
H 	 -3.601959 	 0.840283 	 -3.501189 
H 	 0.952881 	 -3.508752 	 2.681382 
H 	 -0.099355 	 -3.424961 	 3.648824 
H 	 -7.339269 	 -0.201620 	 3.986441 
H 	 -6.776369 	 -0.259212 	 2.528384 
H 	 7.021141 	 -4.614297 	 3.251789 
H 	 7.023178 	 -5.217452 	 4.723343 
H 	 -6.929966 	 2.550967 	 -3.166083 
H 	 -5.307737 	 2.355086 	 -3.039530 
H 	 -5.133860 	 -4.258032 	 -2.393770 
H 	 -5.613856 	 -5.400764 	 -3.227744 
H 	 4.524251 	 2.610959 	 -3.080183 
H 	 3.435278 	 3.627643 	 -3.176257 
H 	 3.342308 	 -3.650797 	 3.406667 
H 	 4.304695 	 -4.810863 	 3.034158 
H 	 -6.966802 	 5.822294 	 1.021665 
H 	 -6.570228 	 -7.529675 	 1.127274 
H 	 6.310179 	 -3.554061 	 -1.056743 
H 	 6.956215 	 -2.206763 	 -1.042724 
H 	 0.932585 	 -0.766759 	 7.130497 
H 	 2.445721 	 -1.119403 	 -7.209470 
H 	 6.728304 	 4.231868 	 6.858273 
H 	 5.270659 	 4.142659 	 7.321683 
H 	 -2.459646 	 -7.307947 	 -5.630755 
H 	 -2.814154 	 -6.694795 	 -4.236936 
H 	 7.106653 	 5.365890 	 -4.379231 
H 	 5.859306 	 5.571719 	 -3.452438 
H 	 7.164661 	 -7.095320 	 -4.545597 
H 	 5.760916 	 -7.324116 	 -5.200070 
H 	 -1.270706 	 3.110484 	 -1.560416 
H 	 -2.392484 	 3.963915 	 -2.199302 
H 	 -1.374134 	 5.422850 	 2.327147 
H 	 -0.741537 	 5.894513 	 3.634915 
H 	 3.169020 	 -1.327114 	 -2.563037 
H 	 2.637135 	 -2.033697 	 -1.177558 
H 	 -5.404358 	 -7.398264 	 -2.700522 
H 	 -5.324615 	 6.909431 	 -4.172263 
H 	 -7.093357 	 1.676631 	 1.221898 
H 	 -5.680947 	 0.981014 	 1.211091 
H 	 1.926884 	 2.834316 	 5.574667 
H 	 0.975278 	 3.411327 	 6.636180 
H 	 6.258603 	 1.873775 	 -4.466725 
H 	 5.948969 	 1.106106 	 -3.162970 
H 	 7.316720 	 -5.620486 	 7.252023 
H 	 7.269505 	 -5.250415 	 -6.151244 
H 	 3.560089 	 4.791944 	 -6.262957 
H 	 4.935985 	 5.180318 	 -5.673468 
H 	 1.618409 	 2.410263 	 -1.656121 
H 	 0.650218 	 1.138471 	 -1.864948 
H 	 -3.024737 	 -2.746326 	 -5.294373 
H 	 -3.282357 	 -4.253044 	 -5.352646 
H 	 -0.372450 	 0.903819 	 1.588103 
H 	 -0.095408 	 1.294612 	 0.006085 
H 	 0.073927 	 -2.016731 	 -0.037978 
H 	 0.363946 	 -3.423500 	 0.477089 
H 	 1.236813 	 1.716741 	 3.003230 
H 	 0.199080 	 0.934553 	 3.894805 
H 	 -4.017728 	 6.846685 	 -0.624538 
H 	 -5.315885 	 5.906048 	 -0.444016 
H 	 -1.573329 	 -0.989059 	 -1.367757 
H 	 -0.375385 	 -1.131861 	 -2.300962 
H 	 -0.927848 	 5.992929 	 -5.854856 
H 	 -0.178464 	 6.274076 	 -4.397300 
H 	 7.229528 	 7.252101 	 6.341266 
H 	 5.985421 	 -6.647376 	 6.310967 
H 	 2.952758 	 -0.400062 	 0.940441 
H 	 2.708169 	 0.066032 	 -0.462034 
H 	 -0.158266 	 6.661993 	 -2.188797 
H 	 0.304938 	 -6.927979 	 -2.950941 
H 	 -2.900494 	 -3.062335 	 -2.692282 
H 	 -3.704201 	 -2.422787 	 -1.433962 
H 	 0.105705 	 -1.407168 	 -4.490438 
H 	 -0.923149 	 -0.667037 	 -5.374329 
H 	 -3.264682 	 2.080256 	 -1.659601 
H 	 -3.706708 	 0.716183 	 -1.164404 
H 	 6.520507 	 0.662200 	 5.547231 
H 	 7.340456 	 1.915905 	 5.134929 
H 	 -6.472345 	 -0.854303 	 -6.583503 
H 	 -5.994132 	 -0.621447 	 -5.131058 
H 	 -6.988021 	 6.051697 	 -6.446331 
H 	 -6.102154 	 5.906038 	 7.076824 
H 	 -7.428403 	 -4.003028 	 -3.509049 
H 	 7.112316 	 -3.790150 	 -4.969401 
H 	 -5.823839 	 4.447681 	 -4.117657 
H 	 -5.646335 	 4.669938 	 -5.612028 
H 	 6.389839 	 0.156419 	 -1.186884 
H 	 -7.323195 	 0.067379 	 -0.252811 
H 	 -3.255838 	 4.472479 	 0.333182 
H 	 -7.298087 	 3.623518 	 3.367575 
H 	 4.477807 	 -3.909895 	 -4.815390 
H 	 3.905990 	 -5.333577 	 -4.621650 
H 	 0.370644 	 -3.914381 	 -3.052412 
H 	 -0.776348 	 -3.806558 	 -4.003386 
H 	 -1.470900 	 3.016173 	 -6.993074 
H 	 -1.955896 	 3.047942 	 6.500001 
H 	 -5.452939 	 -5.234004 	 1.760809 
H 	 -5.582434 	 -5.063169 	 0.183458 
H 	 -6.466891 	 4.227782 	 4.501394 
O 	 2.859189 	 -5.420207 	 0.343827 
O 	 -0.223765 	 5.783652 	 5.152386 
O 	 4.604780 	 -6.257155 	 7.068470 
O 	 0.858656 	 -5.394414 	 -1.633145 
O 	 3.769771 	 -7.140047 	 -4.718509 
O 	 1.829886 	 7.105280 	 -6.728997 
O 	 6.161800 	 5.395606 	 -1.244236 
O 	 3.843931 	 0.829198 	 -6.779135 
O 	 6.038427 	 6.784123 	 3.487241 
O 	 5.077230 	 -1.577274 	 -5.830393 
O 	 -1.590616 	 -4.694855 	 -0.250985 
O 	 6.497538 	 1.608794 	 -6.114610 
O 	 -2.765246 	 -1.165223 	 -6.042302 
O 	 1.904471 	 1.382392 	 -4.669445 
O 	 -5.060913 	 -5.200949 	 3.884099 
O 	 1.785163 	 -5.094533 	 -6.552544 
O 	 -2.251391 	 6.727308 	 -7.366054 
O 	 4.373583 	 3.942181 	 4.258219 
O 	 7.202914 	 3.044216 	 1.609891 
O 	 -4.338677 	 2.200336 	 2.823766 
O 	 -7.227326 	 -3.310030 	 1.992069 
O 	 -3.246753 	 -0.501737 	 2.874262 
O 	 2.183944 	 6.502809 	 0.024703 
O 	 4.521267 	 -4.256174 	 -1.616955 
O 	 -3.262241 	 5.321129 	 -3.199810 
O 	 -4.331722 	 -4.646648 	 -7.151638 
O 	 -7.029545 	 -2.059533 	 7.094804 
O 	 -4.438894 	 -3.067096 	 1.152968 
O 	 2.846633 	 -1.670410 	 4.845419 
O 	 1.868683 	 3.604339 	 2.526692 
O 	 -1.119177 	 -5.779992 	 6.674161 
O 	 2.281049 	 4.055887 	 -5.506200 
O 	 0.875903 	 -6.632706 	 2.488028 
O 	 3.149014 	 1.278376 	 5.322532 
O 	 3.347264 	 5.723883 	 -2.624593 
O 	 -0.697456 	 6.271814 	 -0.425487 
O 	 4.294454 	 5.038718 	 1.149099 
O 	 -3.991951 	 6.373634 	 3.266246 
O 	 -4.315206 	 3.335847 	 -6.183665 
O 	 -0.353191 	 0.505831 	 6.182546 
O 	 -5.294188 	 -2.444324 	 4.913239 
O 	 -1.059451 	 2.722592 	 -4.673067 
O 	 5.148950 	 -0.913789 	 -3.160635 
O 	 1.395288 	 -5.494810 	 5.414391 
O 	 -4.783960 	 1.117106 	 6.795364 
O 	 -2.983602 	 -7.189695 	 0.774200 
O 	 4.603412 	 -3.496930 	 5.795061 
O 	 5.681244 	 -0.786247 	 6.083956 
O 	 -6.413322 	 4.340167 	 -0.140644 
O 	 5.332235 	 1.719574 	 -0.316223 
O 	 6.299239 	 -6.671910 	 -1.937109 
O 	 -2.531142 	 -1.432708 	 5.536844 
O 	 -0.401296 	 3.798879 	 1.184673 
O 	 -3.010016 	 -0.544237 	 -0.093915 
O 	 -4.471158 	 5.565389 	 5.910478 
O 	 -0.599927 	 -3.639584 	 -6.606117 
O 	 3.420023 	 7.120986 	 3.597496 
O 	 -2.238553 	 -3.692349 	 2.658030 
O 	 -2.288041 	 -6.050779 	 4.023028 
O 	 -3.384120 	 3.010526 	 5.357634 
O 	 -5.728815 	 -1.442637 	 -3.543776 
O 	 -3.212069 	 0.865035 	 -4.430967 
O 	 0.890606 	 -3.264635 	 3.613119 
O 	 -6.881549 	 -0.803897 	 3.338102 
O 	 6.481940 	 -4.735199 	 4.055574 
O 	 -6.045277 	 3.025551 	 -3.078554 
O 	 -5.953894 	 -4.578831 	 -2.827193 
O 	 3.540035 	 2.653919 	 -2.998763 
O 	 3.657305 	 -4.200849 	 2.631437 
O 	 -6.787591 	 6.559850 	 1.683113 
O 	 7.119745 	 -3.114958 	 -0.745873 
O 	 1.620963 	 -1.443514 	 7.205698 
O 	 5.937424 	 3.617880 	 6.843190 
O 	 -2.488193 	 -6.426199 	 -5.152463 
O 	 6.112999 	 5.447485 	 -4.393435 
O 	 6.597410 	 -6.829025 	 -5.287470 
O 	 -2.167382 	 3.364577 	 -1.417480 
O 	 -1.080139 	 6.235276 	 2.763859 
O 	 2.479046 	 -1.297494 	 -1.854894 
O 	 -5.317591 	 -7.150940 	 -3.657919 
O 	 -6.624558 	 0.784196 	 1.028619 
O 	 1.426846 	 3.667757 	 5.805119 
O 	 6.271806 	 1.951896 	 -3.510475 
O 	 7.339331 	 -4.802748 	 -7.037389 
O 	 4.452152 	 5.158988 	 -6.542409 
O 	 0.667738 	 2.103122 	 -1.673857 
O 	 -2.752531 	 -3.576106 	 -4.881181 
O 	 -0.753488 	 1.085207 	 0.707963 
O 	 0.635581 	 -2.490941 	 0.649507 
O 	 0.741565 	 0.877049 	 3.113323 
O 	 -4.871566 	 6.552404 	 -1.054809 
O 	 -0.616583 	 -0.716879 	 -1.455679 
O 	 -0.226622 	 5.662167 	 -5.257881 
O 	 6.866516 	 -6.877573 	 5.786888 
O 	 3.115261 	 0.374654 	 0.387599 
O 	 0.254031 	 7.000769 	 -3.034020 
O 	 -3.376662 	 -3.254997 	 -1.861036 
O 	 0.001125 	 -0.618895 	 -5.025567 
O 	 -3.931936 	 1.354558 	 -1.869863 
O 	 -7.436750 	 1.050034 	 5.464930 
O 	 -6.235428 	 -0.148141 	 -5.949704 
O 	 -6.985824 	 5.949436 	 7.491577 
O 	 6.749973 	 -3.708799 	 -4.097313 
O 	 -5.937379 	 5.189255 	 -4.822364 
O 	 7.097701 	 -0.431823 	 -0.972040 
O 	 -3.946460 	 4.239715 	 0.978260 
O 	 3.628585 	 -4.398892 	 -4.672129 
O 	 -0.019598 	 -3.269809 	 -3.678908 
O 	 -1.155017 	 3.077879 	 7.001481 
O 	 -5.417152 	 -5.679732 	 0.935105 
O 	 -6.745637 	 3.368246 	 4.131424 
K 	 3.024991 	 6.097244 	 5.853184 
