333
conformation = 7
H 	 -6.184380 	 -5.013250 	 -90.858116 
H 	 -5.550537 	 -3.696292 	 -90.246089 
H 	 5.363370 	 -7.630326 	 -85.600252 
H 	 6.328879 	 -8.774444 	 -86.111021 
H 	 -3.797820 	 -4.774373 	 401.805409 
H 	 -4.137003 	 -4.059921 	 -84.573749 
H 	 6.339057 	 -4.023703 	 -92.433874 
H 	 -6.995455 	 -3.883733 	 -92.300281 
H 	 -5.023061 	 -6.471121 	 -95.398467 
H 	 -5.528447 	 -6.079314 	 403.168126 
H 	 -7.491421 	 -6.842594 	 402.515337 
H 	 -6.987475 	 -5.521197 	 401.939399 
H 	 -1.593486 	 -8.554490 	 -92.524771 
H 	 -2.143213 	 -7.134768 	 -92.784081 
H 	 -5.489697 	 -12.545562 	 402.510536 
H 	 -3.934190 	 -12.303530 	 402.028730 
H 	 -1.826263 	 -6.762745 	 -88.595974 
H 	 -2.264105 	 -6.052089 	 -87.311802 
H 	 -3.950888 	 -14.608430 	 402.192918 
H 	 -2.632925 	 -15.482405 	 402.447006 
H 	 4.284123 	 -4.020803 	 -91.231691 
H 	 3.961677 	 -2.856291 	 -92.158199 
H 	 -1.484313 	 -12.699279 	 402.492693 
H 	 -2.053011 	 -11.337696 	 401.716133 
H 	 3.263052 	 -14.538167 	 401.629926 
H 	 3.074036 	 -14.013681 	 403.147508 
H 	 -7.319101 	 -13.077254 	 -96.061588 
H 	 -6.303644 	 -12.051654 	 -95.158255 
H 	 2.217990 	 -4.053680 	 -87.192971 
H 	 0.973593 	 -3.076831 	 -87.032236 
H 	 7.154393 	 -3.411809 	 402.079674 
H 	 -6.385950 	 -3.465349 	 402.837012 
H 	 4.275687 	 -5.951254 	 -84.369579 
H 	 3.279238 	 -7.247003 	 -84.407788 
H 	 -3.565080 	 -9.775855 	 -86.436159 
H 	 -4.896721 	 -10.456320 	 -86.986601 
H 	 -0.924318 	 -9.910848 	 -90.595937 
H 	 -2.329652 	 -10.664713 	 -90.409508 
H 	 0.948272 	 -11.060447 	 -88.263466 
H 	 2.041201 	 -10.651775 	 -89.257697 
H 	 -1.330996 	 483.357573 	 -90.412113 
H 	 -0.999869 	 -16.035814 	 -88.964119 
H 	 2.354006 	 -13.358746 	 -88.595655 
H 	 2.494552 	 -14.925637 	 -88.870745 
H 	 -6.026986 	 -7.467719 	 -90.630315 
H 	 -7.490460 	 -7.038184 	 -91.334480 
H 	 -4.556399 	 -3.120358 	 -93.979547 
H 	 -4.714215 	 -3.376778 	 -92.426067 
H 	 2.720653 	 -7.947260 	 -95.390359 
H 	 2.195835 	 -7.838283 	 -93.932245 
H 	 2.183356 	 -4.208817 	 401.598139 
H 	 1.028286 	 -3.316834 	 401.227501 
H 	 -0.171791 	 -15.872091 	 -85.055529 
H 	 -0.991814 	 483.412964 	 401.003578 
H 	 2.289282 	 -2.191134 	 -89.602658 
H 	 0.907976 	 -1.794672 	 -90.050413 
H 	 -6.312953 	 -15.442866 	 -87.313356 
H 	 -6.402929 	 -15.020939 	 -85.810054 
H 	 -6.181221 	 -9.839658 	 -89.537718 
H 	 -6.467349 	 -9.322791 	 -88.070753 
H 	 5.138879 	 -3.568019 	 -84.290151 
H 	 5.976731 	 -4.683045 	 -85.056351 
H 	 -6.533063 	 -10.475881 	 402.892764 
H 	 -7.225351 	 -9.098935 	 402.975899 
H 	 6.938442 	 -5.033285 	 -88.030927 
H 	 6.646557 	 -5.958848 	 -89.118341 
H 	 -5.484811 	 -13.154331 	 -86.417451 
H 	 -5.108419 	 -12.334282 	 -85.140457 
H 	 -4.678504 	 -7.958699 	 -93.324791 
H 	 -6.097948 	 -7.623028 	 -93.445340 
H 	 5.377810 	 -8.283177 	 -91.635171 
H 	 4.783660 	 -6.875564 	 -91.510948 
H 	 -3.966299 	 -8.458634 	 -89.340014 
H 	 -3.624136 	 -8.305323 	 -90.826917 
H 	 1.357008 	 -7.268666 	 -88.632793 
H 	 2.828165 	 -7.834972 	 -88.529632 
H 	 1.556520 	 -10.570651 	 403.169142 
H 	 1.644247 	 -10.935868 	 401.748796 
H 	 5.831604 	 -11.991807 	 -85.133685 
H 	 5.040241 	 -13.242648 	 -85.211270 
H 	 0.406716 	 -15.416820 	 -87.298204 
H 	 1.686557 	 -15.568670 	 -86.236845 
H 	 5.309938 	 -9.739839 	 -95.982395 
H 	 5.972488 	 -11.146440 	 -95.796248 
H 	 -3.645815 	 -14.264249 	 -95.571257 
H 	 -3.059019 	 -15.239573 	 -94.475774 
H 	 -6.831639 	 -3.816666 	 -85.271843 
H 	 -7.353141 	 -3.490306 	 -86.709001 
H 	 1.491711 	 -13.075030 	 401.327768 
H 	 0.616270 	 -12.625325 	 -84.870417 
H 	 3.532697 	 -6.016523 	 -89.678350 
H 	 2.392990 	 -5.272971 	 -90.470517 
H 	 -4.865021 	 483.351305 	 -85.760837 
H 	 -3.590321 	 -2.367580 	 -86.509366 
H 	 -2.354947 	 -14.910711 	 -84.902448 
H 	 -3.596707 	 -15.004937 	 -85.847398 
H 	 1.393707 	 -9.306088 	 -90.817286 
H 	 0.078451 	 -9.776051 	 -92.355775 
H 	 -3.888776 	 -12.455289 	 -91.297872 
H 	 -4.042550 	 -11.340786 	 -92.180875 
H 	 -1.564044 	 -4.766070 	 -93.430295 
H 	 -3.022837 	 -4.886136 	 -92.936996 
H 	 4.218831 	 -15.743099 	 -86.314432 
H 	 3.490449 	 -14.379203 	 -86.556653 
H 	 5.427257 	 -10.582834 	 -90.321194 
H 	 6.730375 	 -9.845319 	 -89.739710 
H 	 3.858107 	 -13.645262 	 -91.028736 
H 	 2.769215 	 -14.642358 	 -90.798373 
H 	 1.986704 	 -8.885052 	 -85.570506 
H 	 1.753780 	 -7.690151 	 -86.462197 
H 	 6.204951 	 483.619949 	 402.160791 
H 	 4.934476 	 -2.272615 	 402.708621 
H 	 -5.704776 	 -5.983080 	 -88.491902 
H 	 -4.203369 	 -6.471073 	 -88.146752 
H 	 4.143407 	 -3.303471 	 -88.613997 
H 	 4.408607 	 -2.224909 	 -89.670179 
H 	 3.649246 	 -5.683629 	 -87.354843 
H 	 4.283730 	 -4.541146 	 -86.464653 
H 	 2.851189 	 -10.749418 	 -87.057268 
H 	 2.345405 	 -11.372875 	 -85.745632 
H 	 -0.110846 	 -14.640899 	 -94.393635 
H 	 0.434793 	 -16.033695 	 -94.918700 
H 	 3.762015 	 -11.976921 	 -95.943719 
H 	 2.820712 	 -12.752611 	 -94.894178 
H 	 -7.357735 	 -2.264797 	 -88.706150 
H 	 6.197660 	 -1.847960 	 -88.043700 
H 	 -0.804995 	 -13.818422 	 -87.358355 
H 	 -0.350481 	 -13.838160 	 -88.881937 
H 	 -1.683365 	 -2.696825 	 -88.017175 
H 	 -1.522636 	 -3.912683 	 -87.023320 
H 	 -0.568250 	 -11.066741 	 -94.756752 
H 	 0.836378 	 -11.069714 	 -94.094549 
H 	 1.204523 	 -2.821193 	 -93.975663 
H 	 0.558032 	 -3.719859 	 -95.037163 
H 	 -4.129997 	 -11.090690 	 -94.805556 
H 	 -5.349799 	 -10.137505 	 -94.734160 
H 	 -5.334591 	 -2.409585 	 -88.017692 
H 	 -4.405711 	 -3.534390 	 -88.470429 
H 	 -0.826859 	 -7.644449 	 -90.376584 
H 	 -0.246803 	 -6.193015 	 -90.112592 
H 	 -2.414949 	 -2.193894 	 -92.478898 
H 	 -1.729977 	 -15.681734 	 -92.131459 
H 	 7.194644 	 -14.346706 	 -84.248721 
H 	 -6.381410 	 -14.576876 	 401.535191 
H 	 -2.126038 	 -9.198300 	 -84.664226 
H 	 -3.416554 	 -9.561110 	 401.188865 
H 	 3.781443 	 -5.910534 	 402.851704 
H 	 3.551274 	 -5.480640 	 -95.729866 
H 	 -1.608505 	 -8.436106 	 -95.900270 
H 	 -2.651566 	 -8.199806 	 -94.819206 
H 	 -1.466051 	 -5.842111 	 -96.002698 
H 	 -2.708498 	 -6.177018 	 403.373818 
H 	 5.000804 	 -10.562026 	 -92.875863 
H 	 4.021582 	 -9.463944 	 -93.450517 
H 	 5.528375 	 -8.234845 	 -89.114859 
H 	 5.355985 	 -7.438739 	 -87.766725 
H 	 -5.324755 	 -14.605805 	 -93.887506 
H 	 -5.898816 	 -15.695757 	 -92.856692 
H 	 1.000398 	 -6.010620 	 -94.068871 
H 	 0.898027 	 -6.765640 	 -95.431216 
H 	 -0.738864 	 -11.905872 	 -90.049139 
H 	 0.521680 	 -12.624287 	 -90.634265 
H 	 -6.730001 	 -10.633785 	 -85.757596 
H 	 7.166645 	 -9.989981 	 -84.693525 
H 	 -2.356186 	 -11.751145 	 -95.853845 
H 	 -2.377517 	 -12.551290 	 -94.547693 
H 	 -1.551984 	 -4.165289 	 -84.123473 
H 	 -1.050510 	 -3.949010 	 402.324844 
H 	 -5.046636 	 -8.979017 	 402.233359 
H 	 -3.733284 	 -8.555904 	 402.888809 
H 	 -7.151156 	 -11.324908 	 -92.700871 
H 	 6.919572 	 -12.460576 	 -93.330919 
H 	 3.165617 	 -16.323534 	 403.209669 
H 	 3.026165 	 -3.081650 	 403.257924 
H 	 6.137646 	 -12.563823 	 -90.096425 
H 	 5.984976 	 -12.405696 	 -91.529027 
H 	 6.531594 	 -15.627114 	 -91.407696 
H 	 6.554462 	 -2.171986 	 -90.794348 
H 	 -7.172259 	 -11.950869 	 -88.294671 
H 	 6.877784 	 -12.654715 	 -87.305318 
H 	 2.056525 	 -6.973286 	 -91.794162 
H 	 0.692078 	 -7.615747 	 -92.125235 
H 	 4.816810 	 -14.676024 	 -92.822292 
H 	 5.953349 	 -14.766612 	 -93.865202 
H 	 5.217795 	 -7.680093 	 402.701803 
H 	 5.989759 	 -7.386399 	 -95.929155 
H 	 -1.403803 	 -6.286187 	 -85.351632 
H 	 -2.848719 	 -5.557878 	 -85.129215 
H 	 -5.461334 	 -13.912267 	 -90.399605 
H 	 -5.860567 	 -13.758531 	 -91.850130 
H 	 6.223070 	 -6.641983 	 -93.513723 
H 	 6.847026 	 -5.686990 	 -94.368097 
H 	 3.397252 	 483.471983 	 -94.048079 
H 	 2.598545 	 -16.102217 	 -92.686329 
H 	 6.441327 	 -15.165824 	 -96.128020 
H 	 5.320057 	 -14.261450 	 403.198643 
H 	 2.974730 	 -11.486618 	 -92.995766 
H 	 2.352607 	 -12.902806 	 -92.648266 
H 	 -1.935478 	 -12.822075 	 -85.550048 
H 	 -1.191421 	 -11.523961 	 -86.270468 
H 	 -0.272961 	 -14.479706 	 402.012891 
H 	 0.232135 	 -14.083587 	 403.478268 
H 	 -0.731116 	 -7.490559 	 402.034691 
H 	 0.274219 	 -7.733243 	 -84.199510 
H 	 -1.228480 	 -2.593889 	 -94.973802 
H 	 -1.470339 	 -2.470412 	 403.511959 
H 	 0.387759 	 -9.034448 	 -95.586907 
H 	 0.862374 	 -8.738965 	 402.998357 
H 	 -2.269723 	 -13.321359 	 -92.764936 
H 	 -1.122610 	 -13.414688 	 -91.707969 
H 	 2.904154 	 -9.728932 	 -90.935712 
H 	 -0.963766 	 -10.023357 	 -88.177058 
H 	 -4.153846 	 -2.718134 	 -96.316479 
H 	 -4.918734 	 -4.042929 	 -96.010901 
H 	 6.855376 	 -2.156902 	 -94.442357 
H 	 5.724986 	 -2.658495 	 -95.371489 
H 	 5.087785 	 -10.723768 	 401.708735 
H 	 4.169908 	 -10.414792 	 -84.721852 
H 	 0.800328 	 -3.861182 	 -89.598126 
H 	 0.633276 	 -3.716782 	 -91.071734 
H 	 -0.025346 	 -9.414864 	 -86.999253 
O 	 -5.766385 	 -4.136443 	 -91.086607 
O 	 6.020946 	 -7.846955 	 -86.277705 
O 	 -4.118947 	 -4.967144 	 -84.195483 
O 	 7.181662 	 -4.015509 	 -92.981886 
O 	 -4.804553 	 -5.883848 	 -96.158995 
O 	 -6.795823 	 -6.492695 	 401.863081 
O 	 -2.442874 	 -8.069794 	 -92.678892 
O 	 -4.826053 	 -12.705957 	 401.797745 
O 	 -2.579821 	 -6.787216 	 -87.948947 
O 	 -3.508409 	 -15.217622 	 402.804380 
O 	 4.731674 	 -3.250016 	 -91.656284 
O 	 -2.135796 	 -11.938630 	 402.494418 
O 	 3.444919 	 -14.730443 	 402.577939 
O 	 -6.734928 	 -12.306662 	 -96.024096 
O 	 1.264539 	 -3.948006 	 -87.430303 
O 	 -6.804941 	 -3.815362 	 401.994397 
O 	 4.012044 	 -6.829637 	 401.192819 
O 	 -4.287508 	 -9.686584 	 -87.116029 
O 	 -1.454612 	 -10.498539 	 -89.899649 
O 	 1.797295 	 -11.384681 	 -88.639876 
O 	 -0.864867 	 -1.913749 	 -89.542092 
O 	 3.026132 	 -14.081971 	 -88.628172 
O 	 -6.498000 	 -7.056538 	 -91.437705 
O 	 -4.139886 	 -2.896697 	 -93.097054 
O 	 2.951341 	 -8.243203 	 -94.503593 
O 	 1.986686 	 -3.298122 	 401.432103 
O 	 -0.766274 	 -15.678980 	 -84.301362 
O 	 1.865618 	 483.475865 	 -90.258469 
O 	 -5.774004 	 -15.139379 	 -86.569491 
O 	 -6.700742 	 -10.004883 	 -88.745249 
O 	 5.057580 	 -4.480075 	 -84.770025 
O 	 -6.382233 	 -9.517484 	 403.058821 
O 	 7.279785 	 -5.231060 	 -88.915332 
O 	 -5.459393 	 -12.243304 	 -86.039654 
O 	 -5.364075 	 -7.915618 	 -93.992893 
O 	 5.558847 	 -7.326913 	 -91.866841 
O 	 -4.345433 	 -8.574961 	 -90.240597 
O 	 2.166244 	 -7.262569 	 -88.053709 
O 	 1.990207 	 -10.272594 	 402.395329 
O 	 5.983894 	 -12.953394 	 -85.234403 
O 	 0.868888 	 -15.956898 	 -86.541315 
O 	 5.165797 	 -10.745485 	 -96.106345 
O 	 -3.491229 	 -14.368344 	 -94.595333 
O 	 -7.276130 	 -4.237783 	 -86.058385 
O 	 1.559612 	 -12.492132 	 -84.537445 
O 	 3.256332 	 -5.811869 	 -90.582412 
O 	 -4.025451 	 -2.216237 	 -85.692605 
O 	 -3.015537 	 -14.372839 	 -85.353325 
O 	 -0.110732 	 -9.222576 	 -91.570186 
O 	 -3.327924 	 -11.860785 	 -91.775261 
O 	 -2.295269 	 -5.397933 	 -93.310693 
O 	 3.680440 	 -15.030343 	 -85.854443 
O 	 5.875914 	 -9.697681 	 -90.226940 
O 	 3.185786 	 -14.124732 	 -91.502090 
O 	 1.740134 	 -7.948349 	 -85.550976 
O 	 5.593434 	 -2.229163 	 401.999024 
O 	 -5.179578 	 -6.523826 	 -87.889949 
O 	 4.137125 	 -2.346547 	 -88.751314 
O 	 3.958260 	 -4.763744 	 -87.356228 
O 	 2.802812 	 -10.601466 	 -86.064259 
O 	 0.504851 	 -15.074764 	 -94.980882 
O 	 3.052420 	 -12.708521 	 -95.839468 
O 	 7.151175 	 -1.910067 	 -87.872180 
O 	 -0.613166 	 -14.441030 	 -88.110807 
O 	 -2.191535 	 -3.343109 	 -87.485516 
O 	 0.176353 	 -10.500706 	 -94.509682 
O 	 0.332030 	 -3.236119 	 -94.200128 
O 	 -5.044487 	 -11.021119 	 -94.431487 
O 	 -5.009797 	 -2.844405 	 -88.816373 
O 	 -0.601101 	 -6.986149 	 -89.717295 
O 	 -1.561108 	 -1.786311 	 -92.130191 
O 	 -6.966854 	 -15.021966 	 -84.177792 
O 	 -2.755453 	 -9.921917 	 -84.619880 
O 	 3.841032 	 -5.142335 	 403.435986 
O 	 -2.522205 	 -8.160334 	 -95.801977 
O 	 -2.017704 	 -5.464133 	 403.287282 
O 	 4.088227 	 -10.140808 	 -92.766257 
O 	 5.152883 	 -7.390079 	 -88.713844 
O 	 -6.078103 	 -14.869244 	 -93.309589 
O 	 0.984841 	 -5.861104 	 -95.045581 
O 	 -0.387054 	 -12.828498 	 -90.342514 
O 	 -7.214630 	 -9.829569 	 -85.482311 
O 	 -2.317089 	 -11.592720 	 -94.834318 
O 	 -1.274344 	 -3.424264 	 401.536959 
O 	 -4.241302 	 -8.420445 	 402.045344 
O 	 6.874801 	 -11.512632 	 -93.128515 
O 	 3.453941 	 -2.311017 	 403.636662 
O 	 5.400078 	 -12.499558 	 -90.758261 
O 	 6.965322 	 -16.187370 	 -90.752347 
O 	 7.053541 	 -12.665043 	 -88.288601 
O 	 1.384028 	 -6.967271 	 -92.471085 
O 	 5.733747 	 -14.451755 	 -92.947566 
O 	 5.968420 	 -7.941176 	 403.277290 
O 	 -1.885373 	 -5.475601 	 -85.500469 
O 	 -5.566657 	 -13.186455 	 -91.074661 
O 	 6.553623 	 -6.619470 	 -94.437179 
O 	 2.963744 	 -1.944732 	 -93.210551 
O 	 6.229471 	 -14.239847 	 403.544270 
O 	 2.301352 	 -12.139042 	 -93.285818 
O 	 -1.126226 	 -12.497775 	 -85.946756 
O 	 -0.041203 	 -13.701750 	 402.595710 
O 	 -0.701209 	 -7.640859 	 401.075636 
O 	 -1.921899 	 -2.320650 	 -95.633691 
O 	 0.360429 	 -8.332140 	 -96.259032 
O 	 -1.589532 	 -13.963134 	 -92.376099 
O 	 2.266141 	 -9.351938 	 -90.294992 
O 	 -5.026503 	 -3.039614 	 -96.058928 
O 	 6.221183 	 -1.871277 	 -95.142287 
O 	 5.136839 	 -10.489073 	 -84.383092 
O 	 0.785879 	 -4.437915 	 -90.450685 
O 	 -0.396019 	 -10.215369 	 -87.366654 
K 	 -5.589503 	 -7.444246 	 -85.544842 
