333
conformation = 11
H 	 4.657994 	 -7.399071 	 -3.205307 
H 	 5.181695 	 -6.116937 	 -2.612653 
H 	 1.257971 	 4.834630 	 2.002349 
H 	 2.299198 	 3.723458 	 1.466183 
H 	 6.986644 	 -7.180945 	 4.334822 
H 	 6.605924 	 -6.427062 	 3.056452 
H 	 2.265869 	 -6.433356 	 -4.813331 
H 	 3.817000 	 -6.283348 	 -4.740016 
H 	 5.757389 	 6.030557 	 7.115087 
H 	 5.243137 	 6.402156 	 5.718434 
H 	 3.322578 	 5.636434 	 4.987814 
H 	 3.813459 	 6.991835 	 4.471772 
H 	 -5.741697 	 3.942153 	 -4.877567 
H 	 -6.233559 	 5.345384 	 -5.146474 
H 	 5.293293 	 -0.099224 	 5.042519 
H 	 6.839260 	 0.243460 	 4.551433 
H 	 -5.985300 	 5.731407 	 -0.998078 
H 	 -6.438551 	 6.472153 	 0.303676 
H 	 6.831564 	 -2.095213 	 4.694857 
H 	 -6.755913 	 -2.953958 	 4.950932 
H 	 0.150141 	 -6.431763 	 -3.609599 
H 	 -0.162118 	 -5.236470 	 -4.531506 
H 	 -5.595995 	 -0.167697 	 5.012883 
H 	 -6.190897 	 1.160472 	 4.205095 
H 	 -0.878928 	 -2.020177 	 4.131890 
H 	 -1.025189 	 -1.531679 	 5.648321 
H 	 3.447471 	 -0.583601 	 6.492642 
H 	 4.478117 	 0.503097 	 7.338618 
H 	 -1.893337 	 -6.456208 	 0.384764 
H 	 -3.094790 	 -5.501090 	 0.596110 
H 	 3.062198 	 -5.758827 	 4.572241 
H 	 4.396436 	 -5.861488 	 5.330387 
H 	 0.104350 	 6.525026 	 3.236426 
H 	 -0.864958 	 5.246088 	 3.154502 
H 	 7.206360 	 2.736434 	 1.148614 
H 	 5.936055 	 2.033962 	 0.640591 
H 	 -5.047974 	 2.589604 	 -3.026526 
H 	 -6.432925 	 1.788468 	 -2.756491 
H 	 -3.181223 	 1.413179 	 -0.670221 
H 	 -2.074983 	 1.804447 	 -1.629614 
H 	 -5.432033 	 -4.123124 	 -2.809572 
H 	 -5.095549 	 -3.514925 	 -1.362118 
H 	 -1.739748 	 -0.883150 	 -0.968595 
H 	 -1.591284 	 -2.412299 	 -1.238332 
H 	 4.718464 	 5.014665 	 -2.989419 
H 	 3.331295 	 5.444702 	 -3.716289 
H 	 6.240041 	 -5.558184 	 -6.331691 
H 	 6.104154 	 -5.765223 	 -4.771351 
H 	 -1.418899 	 4.535268 	 7.091937 
H 	 -1.892252 	 4.645037 	 -6.365973 
H 	 -1.943438 	 -6.626978 	 4.153425 
H 	 -3.099003 	 -5.674926 	 3.673894 
H 	 -4.261925 	 -3.345461 	 2.518784 
H 	 -5.103696 	 -4.108866 	 3.502004 
H 	 -1.849479 	 -4.599508 	 -1.960290 
H 	 -3.245568 	 -4.168982 	 -2.451709 
H 	 4.467158 	 -2.950961 	 0.271577 
H 	 4.399579 	 -2.521058 	 1.782011 
H 	 4.629564 	 2.656554 	 -1.957380 
H 	 4.303318 	 3.180495 	 -0.494678 
H 	 1.060441 	 -6.009311 	 3.313537 
H 	 1.892521 	 -7.036808 	 2.543476 
H 	 4.241042 	 2.038286 	 5.392239 
H 	 3.545608 	 3.387102 	 5.519535 
H 	 2.821488 	 -7.446189 	 -0.407226 
H 	 2.526876 	 6.521342 	 -1.512460 
H 	 5.213089 	 -0.661439 	 1.164282 
H 	 5.664403 	 0.151307 	 2.513812 
H 	 6.153319 	 4.518316 	 -5.712955 
H 	 4.720351 	 4.839356 	 -5.802296 
H 	 1.254814 	 4.167648 	 -4.022438 
H 	 0.637596 	 5.662540 	 -3.945322 
H 	 6.794794 	 3.980750 	 -1.759486 
H 	 7.133075 	 4.230808 	 -3.231586 
H 	 -2.732397 	 5.244716 	 -1.036936 
H 	 -1.320379 	 4.629246 	 -0.946469 
H 	 -2.594322 	 1.918425 	 5.717431 
H 	 -2.489117 	 1.593253 	 4.281685 
H 	 1.762136 	 0.494001 	 2.451324 
H 	 0.927287 	 -0.730763 	 2.385186 
H 	 -3.655542 	 -2.885470 	 0.363224 
H 	 -2.374152 	 -3.110269 	 1.369443 
H 	 1.209573 	 2.722436 	 6.541239 
H 	 1.893498 	 1.308496 	 6.744305 
H 	 7.187723 	 -1.797895 	 6.900368 
H 	 -7.184037 	 -2.787934 	 -6.879242 
H 	 3.944397 	 -6.202333 	 2.329591 
H 	 3.424528 	 -5.919493 	 0.883276 
H 	 -2.635520 	 -0.540686 	 3.840481 
H 	 -3.502884 	 -0.107426 	 2.745123 
H 	 -0.552638 	 6.487596 	 -2.035054 
H 	 -1.709385 	 7.201925 	 -2.954705 
H 	 5.903160 	 -4.124093 	 1.838786 
H 	 7.170491 	 -4.748839 	 1.043353 
H 	 -6.454331 	 -2.464112 	 2.659558 
H 	 7.180858 	 -2.515371 	 1.804290 
H 	 -2.703393 	 3.186422 	 -3.207184 
H 	 -4.048887 	 2.746363 	 -4.764473 
H 	 6.868870 	 -0.031274 	 -3.729075 
H 	 6.761170 	 1.182691 	 -4.620448 
H 	 -5.697054 	 -7.152247 	 -5.823600 
H 	 -7.163067 	 -7.268530 	 -5.379427 
H 	 0.049870 	 -3.248037 	 1.360500 
H 	 -0.687047 	 -1.889045 	 1.059854 
H 	 1.275966 	 1.889538 	 -2.713676 
H 	 2.556336 	 2.584103 	 -2.122710 
H 	 -0.203060 	 -1.108495 	 -3.410367 
H 	 -1.383698 	 -2.146730 	 -3.231881 
H 	 -2.151210 	 3.587926 	 2.005880 
H 	 -2.311936 	 4.868313 	 1.161018 
H 	 2.105936 	 -3.867386 	 4.680818 
H 	 0.791560 	 -4.661395 	 5.243183 
H 	 5.052384 	 6.565592 	 -0.898157 
H 	 6.564472 	 5.969818 	 -0.505509 
H 	 -0.009340 	 -5.726528 	 -1.043088 
H 	 0.310137 	 -4.615761 	 -2.056251 
H 	 -0.515698 	 6.816297 	 0.227412 
H 	 0.164245 	 -6.949798 	 1.177447 
H 	 -1.272037 	 1.744836 	 0.555718 
H 	 -1.783061 	 1.128116 	 1.866411 
H 	 -4.182283 	 -2.091717 	 -6.730033 
H 	 -3.674626 	 -3.543666 	 -7.306464 
H 	 -0.375097 	 0.508162 	 6.616756 
H 	 -1.297496 	 -0.236626 	 -7.257656 
H 	 3.435285 	 -4.673378 	 -1.078680 
H 	 2.061711 	 -4.286143 	 -0.336329 
H 	 -4.943441 	 -1.273917 	 0.260480 
H 	 -4.460174 	 -1.326782 	 -1.253741 
H 	 -5.776908 	 -5.135824 	 -0.435108 
H 	 -5.672398 	 -6.290229 	 0.618263 
H 	 -4.677604 	 1.414665 	 -7.145477 
H 	 -3.241605 	 1.395652 	 -6.548613 
H 	 -2.930456 	 -5.220423 	 -6.345123 
H 	 -3.569317 	 -6.167638 	 -7.420523 
H 	 6.665334 	 1.393732 	 -7.158906 
H 	 5.410868 	 2.361105 	 -7.099850 
H 	 5.463181 	 -4.805765 	 -0.432227 
H 	 6.366008 	 -5.942688 	 -0.852408 
H 	 -4.958664 	 4.847497 	 -2.767012 
H 	 -4.353589 	 6.304111 	 -2.543817 
H 	 -6.475071 	 -4.620718 	 -4.860142 
H 	 -5.819674 	 -3.191871 	 -4.544250 
H 	 3.117676 	 -1.840302 	 3.383779 
H 	 4.386455 	 -2.069680 	 4.009430 
H 	 -6.239731 	 3.315409 	 2.966138 
H 	 7.394565 	 2.939665 	 3.661856 
H 	 -0.317922 	 6.583334 	 5.362544 
H 	 -0.564725 	 7.060789 	 6.811245 
H 	 -5.688373 	 4.093543 	 6.635975 
H 	 -6.791503 	 4.335444 	 -7.241311 
H 	 -5.591113 	 6.640733 	 6.507567 
H 	 -6.822746 	 6.329849 	 5.874141 
H 	 0.883303 	 1.929469 	 -5.275338 
H 	 -0.111300 	 3.028708 	 -5.850529 
H 	 1.296546 	 4.264283 	 -1.501977 
H 	 1.245836 	 5.053581 	 -0.163821 
H 	 5.475363 	 -2.188297 	 -6.320105 
H 	 4.911869 	 -3.164491 	 -5.243608 
H 	 -3.148759 	 6.480520 	 -6.501191 
H 	 -3.174304 	 5.752744 	 7.100386 
H 	 -4.865289 	 0.621953 	 -2.440409 
H 	 -3.582686 	 -0.130347 	 -2.966858 
H 	 4.063811 	 1.870181 	 1.825847 
H 	 3.060928 	 2.496729 	 2.941657 
H 	 -6.505875 	 0.751032 	 6.686102 
H 	 -6.537335 	 -0.023004 	 -6.926316 
H 	 -5.645232 	 -6.626538 	 3.472593 
H 	 -5.180427 	 -6.299792 	 4.886297 
H 	 5.755974 	 3.497422 	 4.689129 
H 	 7.077097 	 3.916254 	 5.427438 
H 	 3.613599 	 1.169559 	 -5.152458 
H 	 2.820899 	 0.042202 	 -5.700139 
H 	 -0.950945 	 -3.839800 	 5.733720 
H 	 -1.117170 	 -5.482137 	 5.747652 
H 	 2.019136 	 -0.040705 	 -2.461748 
H 	 1.914974 	 0.118258 	 -3.901143 
H 	 2.371274 	 -3.135398 	 -3.793985 
H 	 2.465096 	 -4.551397 	 -3.168023 
H 	 3.584680 	 0.564202 	 -0.694634 
H 	 2.716914 	 -0.125305 	 0.310918 
H 	 -2.005552 	 5.560209 	 -4.208207 
H 	 -3.414753 	 4.901310 	 -4.437416 
H 	 0.669243 	 -2.184393 	 -5.183619 
H 	 1.854530 	 -2.214781 	 -6.228268 
H 	 1.107502 	 4.825518 	 5.227617 
H 	 1.886977 	 5.160122 	 6.620946 
H 	 -5.523251 	 6.191775 	 2.270439 
H 	 -6.982628 	 6.934379 	 2.479459 
H 	 5.307445 	 -1.416479 	 -2.818577 
H 	 4.896058 	 -1.178685 	 -4.218630 
H 	 2.104806 	 5.832211 	 -5.920059 
H 	 2.686992 	 6.854702 	 -6.785520 
H 	 -0.730388 	 -4.004648 	 -6.398620 
H 	 -1.513405 	 -3.601177 	 -5.143600 
H 	 2.314833 	 -2.646445 	 6.408840 
H 	 1.195558 	 -1.782557 	 5.714125 
H 	 -1.136211 	 1.017249 	 -5.410277 
H 	 -1.765032 	 -0.417147 	 -5.035191 
H 	 -6.077832 	 -0.341682 	 2.038859 
H 	 -5.309160 	 0.955625 	 1.338789 
H 	 -4.377322 	 -1.957770 	 4.529955 
H 	 -3.859711 	 -1.605201 	 5.989463 
H 	 -4.821324 	 4.976231 	 4.570901 
H 	 -3.887359 	 4.785381 	 3.426673 
H 	 -5.318626 	 -5.020278 	 -7.325357 
H 	 -5.583946 	 -4.888263 	 6.010404 
H 	 -3.708432 	 3.465437 	 6.959932 
H 	 -3.296555 	 3.752268 	 5.473222 
H 	 -6.356141 	 -0.838971 	 -5.162777 
H 	 -5.209790 	 -0.926177 	 -4.130426 
H 	 -1.146707 	 2.862916 	 -3.341332 
H 	 -5.086940 	 2.480425 	 -0.524192 
H 	 6.633496 	 -5.092706 	 6.203316 
H 	 5.856127 	 -6.438491 	 6.490126 
H 	 2.735172 	 -4.583350 	 -6.824835 
H 	 1.546175 	 -5.052944 	 7.097959 
H 	 0.980473 	 1.803264 	 4.173430 
H 	 0.073596 	 2.074192 	 2.852029 
H 	 -3.300252 	 -6.236975 	 -2.025287 
H 	 -3.470684 	 -6.111231 	 -3.480047 
H 	 -4.139084 	 3.097792 	 0.646903 
O 	 5.013277 	 -6.529955 	 -3.478848 
O 	 1.904179 	 4.659423 	 1.332109 
O 	 6.676812 	 -7.366862 	 3.390494 
O 	 3.054707 	 -6.425032 	 -5.377716 
O 	 5.972535 	 6.625290 	 6.351067 
O 	 3.983437 	 6.008737 	 4.370360 
O 	 -6.564204 	 4.412066 	 -5.067459 
O 	 5.963701 	 -0.213308 	 4.305425 
O 	 -6.696580 	 5.712038 	 -0.338507 
O 	 7.267737 	 -2.710411 	 5.307243 
O 	 0.605810 	 -5.665980 	 -4.053106 
O 	 -6.251240 	 0.554213 	 5.001222 
O 	 -0.664560 	 -2.233008 	 5.084238 
O 	 4.050044 	 0.209359 	 6.480221 
O 	 -2.862326 	 -6.339410 	 0.165061 
O 	 3.974622 	 -6.212382 	 4.508746 
O 	 -0.100539 	 5.670516 	 3.710651 
O 	 6.498928 	 2.821699 	 0.485967 
O 	 -5.568073 	 1.994803 	 -2.275721 
O 	 -2.301803 	 1.119282 	 -1.026027 
O 	 -4.997482 	 -4.328340 	 -1.915913 
O 	 -1.095084 	 -1.581532 	 -1.010696 
O 	 4.290624 	 5.439715 	 -3.825301 
O 	 6.644529 	 -5.301908 	 -5.481744 
O 	 -1.160366 	 4.254185 	 -6.908519 
O 	 -2.138064 	 -5.702346 	 3.942031 
O 	 -4.885079 	 -3.169808 	 3.306858 
O 	 -2.253810 	 -4.044178 	 -2.649630 
O 	 5.005504 	 -2.656880 	 1.044029 
O 	 4.068598 	 2.498078 	 -1.152895 
O 	 0.948735 	 -6.877934 	 2.846584 
O 	 4.408317 	 2.984589 	 5.571956 
O 	 3.144065 	 7.256993 	 -1.307634 
O 	 5.320410 	 0.244425 	 1.560308 
O 	 5.425380 	 4.593668 	 -6.393793 
O 	 1.443442 	 5.175977 	 -4.253444 
O 	 6.442020 	 3.930919 	 -2.634565 
O 	 -1.936200 	 5.245338 	 -0.453519 
O 	 -2.128461 	 2.229107 	 4.900944 
O 	 1.851916 	 -0.469411 	 2.377523 
O 	 -3.237036 	 -3.466141 	 1.070178 
O 	 1.049462 	 1.739856 	 6.403992 
O 	 7.290849 	 -1.883331 	 -6.978506 
O 	 3.511583 	 -6.627960 	 1.558597 
O 	 -2.565488 	 0.012845 	 3.059854 
O 	 -0.862064 	 6.678920 	 -2.978424 
O 	 6.758467 	 -4.609386 	 1.927148 
O 	 -7.124329 	 -1.869337 	 2.257033 
O 	 -4.235095 	 3.272246 	 -3.957015 
O 	 7.459648 	 0.638082 	 -4.158968 
O 	 -6.419286 	 7.106659 	 -5.708125 
O 	 -0.424497 	 -2.532360 	 1.746458 
O 	 1.762591 	 2.793724 	 -2.617637 
O 	 -0.923009 	 -1.626784 	 -3.889803 
O 	 -2.369500 	 4.541790 	 2.061492 
O 	 1.484010 	 -4.643118 	 4.504147 
O 	 5.602401 	 5.983743 	 -0.269605 
O 	 0.002515 	 -4.750576 	 -1.142242 
O 	 -0.155653 	 -7.157670 	 0.245618 
O 	 -1.303589 	 1.902403 	 1.546681 
O 	 -3.610369 	 -2.571327 	 -7.370677 
O 	 -1.064041 	 -0.212139 	 6.663352 
O 	 3.032875 	 -4.312482 	 -0.257390 
O 	 -4.733025 	 -1.939414 	 -0.499808 
O 	 -6.301167 	 -5.756625 	 0.144195 
O 	 -3.939207 	 1.992073 	 -6.897953 
O 	 -3.789450 	 -5.638858 	 -6.595061 
O 	 5.732791 	 1.492318 	 -6.823633 
O 	 5.775737 	 -5.248837 	 -1.203089 
O 	 -4.710117 	 5.507264 	 -2.108494 
O 	 -5.675208 	 -4.187668 	 -4.527061 
O 	 3.811590 	 -2.525262 	 3.425071 
O 	 -6.868782 	 2.570872 	 2.997876 
O 	 -0.285588 	 7.359541 	 5.943863 
O 	 -6.640686 	 4.344482 	 6.705503 
O 	 -6.141017 	 7.031274 	 5.797013 
O 	 -0.029232 	 2.347906 	 -5.167969 
O 	 1.043106 	 5.113963 	 -1.091272 
O 	 4.688429 	 -2.370225 	 -5.690667 
O 	 -3.137552 	 6.640174 	 -7.439747 
O 	 -4.506210 	 -0.326292 	 -2.742863 
O 	 3.566000 	 2.659061 	 2.108333 
O 	 -6.439236 	 0.901357 	 -7.239841 
O 	 -5.398052 	 -5.832547 	 4.048518 
O 	 6.545589 	 4.083260 	 4.554948 
O 	 2.766628 	 0.994328 	 -5.512994 
O 	 -0.654792 	 -4.703062 	 6.152334 
O 	 1.297162 	 -0.000945 	 -3.145160 
O 	 2.838071 	 -3.671730 	 -3.145993 
O 	 2.928539 	 -0.171985 	 -0.684116 
O 	 -2.732475 	 5.524480 	 -4.863657 
O 	 1.602615 	 -1.931790 	 -5.328946 
O 	 1.860413 	 4.561335 	 5.789575 
O 	 -5.985500 	 7.013241 	 2.090193 
O 	 5.223534 	 -0.690551 	 -3.460684 
O 	 2.430449 	 5.883179 	 -6.827694 
O 	 -1.162264 	 -4.345311 	 -5.609264 
O 	 2.118148 	 -1.731168 	 6.053884 
O 	 -1.809057 	 0.349422 	 -5.675480 
O 	 -5.253456 	 -0.000774 	 1.661030 
O 	 -4.150604 	 -1.205805 	 5.109842 
O 	 -4.820385 	 4.861370 	 3.599023 
O 	 -6.033412 	 -4.731952 	 6.890766 
O 	 -3.763397 	 4.159498 	 6.250980 
O 	 -5.703388 	 -1.466853 	 -4.763238 
O 	 -1.847578 	 3.148641 	 -2.707012 
O 	 5.758833 	 -5.443927 	 6.443189 
O 	 2.106745 	 -4.283565 	 7.372072 
O 	 1.012108 	 2.006406 	 3.221813 
O 	 -3.323468 	 -6.826110 	 -2.844816 
O 	 -4.526557 	 2.284164 	 0.251003 
K 	 5.189941 	 5.049199 	 2.060381 
