333
conformation = 24
H 	 4.944819 	 -7.502926 	 -3.373971 
H 	 4.935292 	 -6.001528 	 -2.696496 
H 	 1.398522 	 4.480655 	 2.101501 
H 	 2.545049 	 3.857252 	 1.365441 
H 	 6.913928 	 -7.450603 	 4.222083 
H 	 6.441005 	 -6.453555 	 3.015473 
H 	 2.339890 	 -6.381355 	 -4.798753 
H 	 3.859520 	 -6.402911 	 -4.964760 
H 	 5.893072 	 6.072600 	 7.144051 
H 	 5.309657 	 6.219159 	 5.678587 
H 	 3.283557 	 5.490338 	 4.755256 
H 	 3.841241 	 6.975280 	 4.454079 
H 	 -5.890437 	 3.793201 	 -4.635513 
H 	 -6.330990 	 5.243619 	 -5.109705 
H 	 5.404869 	 -0.276385 	 5.083685 
H 	 6.789968 	 0.208998 	 4.606452 
H 	 -6.083260 	 5.777512 	 -1.091664 
H 	 -6.574016 	 6.459472 	 0.232807 
H 	 6.930605 	 -2.039725 	 4.567438 
H 	 -6.781935 	 -2.816862 	 4.859596 
H 	 0.081090 	 -6.543583 	 -3.664236 
H 	 -0.073806 	 -5.201448 	 -4.570816 
H 	 -5.440710 	 -0.042793 	 4.907174 
H 	 -6.187052 	 1.093603 	 4.139065 
H 	 -0.919739 	 -2.076547 	 4.107289 
H 	 -0.853602 	 -1.525596 	 5.595892 
H 	 3.437492 	 -0.450989 	 6.759177 
H 	 4.581938 	 0.596314 	 7.169572 
H 	 -1.946541 	 -6.589935 	 0.079908 
H 	 -2.961626 	 -5.521900 	 0.560155 
H 	 3.152902 	 -5.629428 	 4.457516 
H 	 4.623086 	 -5.801672 	 5.078764 
H 	 0.118516 	 6.520786 	 3.355425 
H 	 -0.879677 	 5.164632 	 3.183242 
H 	 7.249015 	 2.864772 	 1.048024 
H 	 6.246996 	 1.894530 	 0.545258 
H 	 -5.077451 	 2.344424 	 -3.045669 
H 	 -6.399992 	 1.551411 	 -2.532098 
H 	 -3.131916 	 1.302383 	 -0.741908 
H 	 -2.032094 	 1.695435 	 -1.728104 
H 	 -5.383256 	 -4.350667 	 -2.832805 
H 	 -5.022578 	 -3.508682 	 -1.499624 
H 	 -1.722431 	 -0.893437 	 -1.020343 
H 	 -1.576488 	 -2.422982 	 -1.169796 
H 	 4.666419 	 4.855267 	 -3.065467 
H 	 3.365533 	 5.341065 	 -3.792379 
H 	 6.232636 	 -5.708291 	 -6.265475 
H 	 6.196933 	 -5.772930 	 -4.687685 
H 	 -1.447844 	 4.271230 	 6.942432 
H 	 -1.757957 	 4.571473 	 -6.407367 
H 	 -2.170852 	 -6.707550 	 4.238511 
H 	 -3.057915 	 -5.705020 	 3.455090 
H 	 -4.259064 	 -3.105974 	 2.468105 
H 	 -5.053411 	 -4.138044 	 3.462053 
H 	 -1.872717 	 -4.533080 	 -1.868590 
H 	 -3.250600 	 -4.010587 	 -2.480535 
H 	 4.297500 	 -2.923933 	 0.308457 
H 	 4.440212 	 -2.709860 	 1.798423 
H 	 4.803385 	 2.542283 	 -1.921895 
H 	 4.264903 	 3.183183 	 -0.685908 
H 	 1.025344 	 -6.130653 	 3.403976 
H 	 1.898437 	 -6.950527 	 2.345447 
H 	 4.202025 	 1.995814 	 5.505839 
H 	 3.575360 	 3.411372 	 5.689737 
H 	 2.912556 	 7.284865 	 -0.391563 
H 	 2.490067 	 6.371884 	 -1.551208 
H 	 4.899026 	 -0.663336 	 1.120765 
H 	 5.516224 	 -0.149733 	 2.438961 
H 	 6.348252 	 4.355422 	 -6.012613 
H 	 4.834364 	 4.730564 	 -5.743687 
H 	 1.277444 	 4.169218 	 -3.995122 
H 	 0.596627 	 5.659940 	 -4.142950 
H 	 6.905497 	 3.707298 	 -1.884212 
H 	 7.115274 	 4.288949 	 -3.293904 
H 	 -2.699777 	 5.397835 	 -1.034852 
H 	 -1.437130 	 4.479732 	 -1.005483 
H 	 -2.416030 	 1.766029 	 5.749778 
H 	 -2.471394 	 1.643717 	 4.164360 
H 	 1.804187 	 0.371581 	 2.497279 
H 	 0.880457 	 -0.845963 	 2.259552 
H 	 -3.424911 	 -2.766180 	 0.542994 
H 	 -2.202153 	 -3.420274 	 1.287580 
H 	 1.264415 	 2.568397 	 6.483681 
H 	 1.906220 	 1.127175 	 6.727048 
H 	 7.395584 	 -2.049796 	 6.868481 
H 	 -7.234513 	 -2.918845 	 -6.797105 
H 	 3.989075 	 -6.173635 	 2.292826 
H 	 3.420865 	 -5.894443 	 0.913645 
H 	 -2.697211 	 -0.375307 	 3.862344 
H 	 -3.530657 	 0.002925 	 2.596746 
H 	 -0.643480 	 6.488442 	 -2.070989 
H 	 -1.685433 	 7.116506 	 -3.055037 
H 	 5.973821 	 -4.061030 	 1.671210 
H 	 7.219091 	 -4.826952 	 1.050456 
H 	 -6.320416 	 -2.527368 	 2.351482 
H 	 7.067303 	 -2.413277 	 1.917310 
H 	 -2.657268 	 3.105074 	 -3.389295 
H 	 -4.161058 	 2.799255 	 -4.864389 
H 	 6.785405 	 -0.140451 	 -4.075495 
H 	 7.065416 	 1.189160 	 -4.852401 
H 	 -5.738061 	 -7.141350 	 -5.883130 
H 	 -7.234459 	 -7.210479 	 -5.734988 
H 	 -0.068120 	 -3.369366 	 1.345731 
H 	 -0.682776 	 -2.227643 	 0.793767 
H 	 1.159166 	 1.890869 	 -2.857135 
H 	 2.417020 	 2.411885 	 -2.039632 
H 	 -0.171509 	 -1.190914 	 -3.353155 
H 	 -1.374865 	 -2.209610 	 -3.306688 
H 	 -2.108441 	 3.533706 	 1.771765 
H 	 -2.084240 	 4.930682 	 1.244990 
H 	 2.043443 	 -3.893956 	 4.543399 
H 	 0.729178 	 -4.659838 	 5.073804 
H 	 5.127571 	 6.628495 	 -0.913682 
H 	 6.476400 	 5.792772 	 -0.608011 
H 	 -0.114504 	 -5.794309 	 -1.084347 
H 	 0.407433 	 -4.623362 	 -2.022485 
H 	 -0.638172 	 6.866126 	 0.083346 
H 	 0.135241 	 -7.135616 	 1.153671 
H 	 -1.368917 	 1.688725 	 0.541825 
H 	 -1.747780 	 1.169959 	 1.988617 
H 	 -3.949072 	 -2.217948 	 -6.529293 
H 	 -3.865241 	 -3.505475 	 -7.234654 
H 	 -0.381536 	 0.433465 	 6.579739 
H 	 -1.432738 	 -0.269174 	 -7.334812 
H 	 3.149176 	 -4.670153 	 -1.169526 
H 	 2.056334 	 -4.532956 	 -0.222820 
H 	 -5.164736 	 -1.295839 	 0.165198 
H 	 -4.573028 	 -1.368977 	 -1.321923 
H 	 -5.722762 	 -5.643326 	 -0.614320 
H 	 -5.740192 	 -6.314774 	 0.822154 
H 	 -4.748525 	 1.424041 	 -7.048462 
H 	 -3.161020 	 1.271087 	 -6.871321 
H 	 -2.974663 	 -5.358848 	 -6.258804 
H 	 -3.475303 	 -6.506959 	 -7.160155 
H 	 6.691746 	 1.461555 	 -6.953914 
H 	 5.541739 	 2.467271 	 -7.040363 
H 	 5.500012 	 -4.797072 	 -0.464540 
H 	 6.423087 	 -5.945414 	 -0.819464 
H 	 -4.861245 	 4.750763 	 -2.830878 
H 	 -4.413386 	 6.226126 	 -2.723571 
H 	 -6.427128 	 -4.677240 	 -4.902908 
H 	 -5.806961 	 -3.286916 	 -4.869883 
H 	 3.087202 	 -1.901608 	 3.290442 
H 	 4.551048 	 -2.232560 	 3.842780 
H 	 -6.076162 	 3.154412 	 3.001652 
H 	 7.385081 	 3.023652 	 3.502311 
H 	 -0.300237 	 6.498180 	 5.407639 
H 	 -0.637181 	 7.097085 	 6.812217 
H 	 -5.641773 	 4.226123 	 6.665604 
H 	 -6.894002 	 4.434484 	 -7.325796 
H 	 -5.558245 	 6.690120 	 6.486602 
H 	 -6.969832 	 6.439854 	 5.792829 
H 	 0.899023 	 1.956750 	 -5.390792 
H 	 -0.222349 	 2.868310 	 -6.004242 
H 	 0.823072 	 4.284480 	 -1.499106 
H 	 1.377593 	 4.811929 	 -0.232655 
H 	 5.357852 	 -2.469405 	 -6.411391 
H 	 4.846129 	 -3.143500 	 -5.103788 
H 	 -3.247388 	 6.421646 	 -6.574080 
H 	 -3.148179 	 5.785839 	 6.930808 
H 	 -4.939498 	 0.549705 	 -2.618434 
H 	 -3.540349 	 -0.160196 	 -2.683522 
H 	 4.056938 	 1.731551 	 1.763302 
H 	 3.135547 	 2.288132 	 2.831741 
H 	 -6.518732 	 0.768595 	 6.573059 
H 	 -6.772895 	 0.006025 	 -6.959538 
H 	 -5.460143 	 -6.733875 	 3.414304 
H 	 -5.412381 	 -6.310181 	 4.923688 
H 	 5.711270 	 3.605918 	 4.712000 
H 	 7.103135 	 4.013453 	 5.417708 
H 	 3.704904 	 1.256437 	 -5.446896 
H 	 2.799821 	 0.021009 	 -5.708509 
H 	 -0.928634 	 -3.878384 	 5.709856 
H 	 -1.159953 	 -5.381853 	 5.669086 
H 	 1.763465 	 -0.184853 	 -2.254997 
H 	 1.987284 	 0.169310 	 -3.896840 
H 	 2.224837 	 -3.191985 	 -3.865356 
H 	 2.495950 	 -4.533196 	 -3.333466 
H 	 3.430771 	 0.578499 	 -0.866290 
H 	 2.364901 	 -0.196522 	 0.109000 
H 	 -1.873677 	 5.701296 	 -4.453999 
H 	 -3.215787 	 4.818834 	 -4.276041 
H 	 0.590040 	 -2.150568 	 -5.210304 
H 	 1.796158 	 -2.216951 	 -6.167374 
H 	 1.195732 	 4.860609 	 5.204919 
H 	 1.951481 	 5.145709 	 6.624575 
H 	 -5.544094 	 6.135617 	 2.448705 
H 	 -6.827966 	 7.067125 	 2.498649 
H 	 5.147083 	 -1.503669 	 -2.900910 
H 	 4.862553 	 -1.033728 	 -4.275294 
H 	 2.018704 	 5.544774 	 -6.056988 
H 	 2.493821 	 6.867182 	 -6.871245 
H 	 -0.743644 	 -4.121189 	 -6.486476 
H 	 -1.538599 	 -3.575152 	 -5.300488 
H 	 2.254342 	 -2.566488 	 6.549099 
H 	 1.218176 	 -1.813058 	 5.688095 
H 	 -1.124122 	 0.949990 	 -5.499949 
H 	 -1.593248 	 -0.418999 	 -5.004970 
H 	 -6.207462 	 -0.425591 	 1.731880 
H 	 -5.413119 	 0.843027 	 1.284025 
H 	 -4.324604 	 -1.980197 	 4.485282 
H 	 -3.826101 	 -1.757885 	 5.925111 
H 	 -4.860324 	 4.908588 	 4.603611 
H 	 -3.977490 	 4.786087 	 3.241446 
H 	 -5.272741 	 -5.122013 	 -7.309021 
H 	 -5.636646 	 -4.927183 	 6.035207 
H 	 -3.656668 	 3.366402 	 6.918716 
H 	 -3.478688 	 3.572466 	 5.426583 
H 	 -6.354149 	 -0.946671 	 -5.082141 
H 	 -5.178672 	 -1.039546 	 -4.143041 
H 	 -1.081733 	 3.299502 	 -3.487216 
H 	 -5.142460 	 2.516185 	 -0.470892 
H 	 6.629966 	 -5.045493 	 6.227123 
H 	 6.022186 	 -6.474188 	 6.435042 
H 	 2.566545 	 -4.980772 	 -6.875574 
H 	 1.380164 	 -4.973942 	 7.043126 
H 	 0.748868 	 1.878384 	 4.074611 
H 	 0.133682 	 1.941465 	 2.664077 
H 	 -3.283174 	 -6.354615 	 -2.044161 
H 	 -3.434690 	 -6.218825 	 -3.675308 
H 	 -4.281473 	 3.117307 	 0.650757 
O 	 5.006363 	 -6.543906 	 -3.503741 
O 	 1.917827 	 4.658251 	 1.300277 
O 	 6.742017 	 -7.380005 	 3.241009 
O 	 3.012926 	 -6.507836 	 -5.467477 
O 	 5.927786 	 6.632513 	 6.330167 
O 	 3.975307 	 5.984127 	 4.325294 
O 	 -6.583275 	 4.290076 	 -5.093542 
O 	 5.988664 	 -0.286095 	 4.267992 
O 	 -6.707273 	 5.666277 	 -0.364098 
O 	 7.229431 	 -2.706546 	 5.233228 
O 	 0.561825 	 -5.797436 	 -4.100345 
O 	 -6.255368 	 0.491556 	 4.945111 
O 	 -0.624540 	 -2.283419 	 5.018196 
O 	 4.052477 	 0.248508 	 6.391604 
O 	 -2.906820 	 -6.329053 	 0.052227 
O 	 3.939700 	 -6.222616 	 4.496265 
O 	 -0.101638 	 5.612290 	 3.686415 
O 	 6.516383 	 2.819409 	 0.414060 
O 	 -5.548199 	 1.932120 	 -2.251141 
O 	 -2.207966 	 1.082677 	 -1.030997 
O 	 -5.068712 	 -4.421307 	 -1.867875 
O 	 -1.100156 	 -1.619216 	 -0.988035 
O 	 4.325446 	 5.386961 	 -3.833134 
O 	 6.663743 	 -5.369574 	 -5.475865 
O 	 -1.123958 	 4.204162 	 -7.031890 
O 	 -2.176542 	 -5.762308 	 3.902344 
O 	 -4.881374 	 -3.186452 	 3.249311 
O 	 -2.284218 	 -4.175809 	 -2.691372 
O 	 4.998783 	 -2.777317 	 1.002199 
O 	 4.018329 	 2.478473 	 -1.299071 
O 	 1.015448 	 -6.902840 	 2.826325 
O 	 4.427236 	 2.940478 	 5.545639 
O 	 3.041806 	 7.157102 	 -1.356549 
O 	 5.302639 	 0.165895 	 1.480286 
O 	 5.480046 	 4.598285 	 -6.464144 
O 	 1.448984 	 5.151758 	 -4.274389 
O 	 6.446297 	 3.915982 	 -2.694549 
O 	 -1.857961 	 5.246032 	 -0.564741 
O 	 -2.160058 	 2.208573 	 4.865204 
O 	 1.799121 	 -0.594818 	 2.338214 
O 	 -3.162513 	 -3.556698 	 1.060025 
O 	 1.079609 	 1.617877 	 6.376508 
O 	 7.293681 	 -2.011130 	 -7.004635 
O 	 3.538168 	 -6.623630 	 1.559844 
O 	 -2.623664 	 -0.007654 	 2.961664 
O 	 -0.841069 	 6.595536 	 -3.062848 
O 	 6.754604 	 -4.620802 	 1.939124 
O 	 -7.077281 	 -1.906796 	 2.233563 
O 	 -4.262107 	 3.221579 	 -3.987379 
O 	 7.475231 	 0.597807 	 -4.165735 
O 	 -6.448280 	 7.099900 	 -5.778768 
O 	 -0.386175 	 -2.556846 	 1.694969 
O 	 1.756791 	 2.692650 	 -2.659295 
O 	 -0.871456 	 -1.664940 	 -3.936395 
O 	 -2.329566 	 4.455689 	 2.053257 
O 	 1.535050 	 -4.750404 	 4.450474 
O 	 5.575618 	 5.990551 	 -0.256322 
O 	 -0.077203 	 -4.810485 	 -1.188775 
O 	 -0.140229 	 -7.172240 	 0.179732 
O 	 -1.247071 	 1.885154 	 1.512180 
O 	 -3.585428 	 -2.568537 	 -7.399886 
O 	 -1.064170 	 -0.257242 	 6.620016 
O 	 3.038810 	 -4.375395 	 -0.242892 
O 	 -4.734937 	 -1.936369 	 -0.514297 
O 	 -6.272959 	 -5.847202 	 0.196028 
O 	 -3.906532 	 1.911121 	 -6.926419 
O 	 -3.806358 	 -5.691873 	 -6.667394 
O 	 5.694007 	 1.519970 	 -6.851783 
O 	 5.799713 	 -5.314921 	 -1.220278 
O 	 -4.652276 	 5.443309 	 -2.158659 
O 	 -5.639343 	 -4.234691 	 -4.587800 
O 	 3.778167 	 -2.562133 	 3.363479 
O 	 -6.823634 	 2.500850 	 2.990652 
O 	 -0.331864 	 7.345659 	 5.900692 
O 	 -6.638855 	 4.325019 	 6.660805 
O 	 -6.155618 	 6.954987 	 5.767057 
O 	 -0.023525 	 2.254702 	 -5.256684 
O 	 1.066410 	 5.108537 	 -1.087288 
O 	 4.633506 	 -2.414453 	 -5.702787 
O 	 -3.164400 	 6.621162 	 7.399542 
O 	 -4.486342 	 -0.338183 	 -2.814816 
O 	 3.570964 	 2.562951 	 1.973107 
O 	 -6.471806 	 0.834136 	 -7.346242 
O 	 -5.413699 	 -5.917924 	 4.014484 
O 	 6.590351 	 4.041997 	 4.512092 
O 	 2.810627 	 0.979857 	 -5.525800 
O 	 -0.609042 	 -4.704982 	 6.164250 
O 	 1.386340 	 -0.035381 	 -3.149604 
O 	 2.793318 	 -3.624643 	 -3.195502 
O 	 2.897586 	 -0.235796 	 -0.731912 
O 	 -2.725717 	 5.440984 	 -4.901833 
O 	 1.540622 	 -1.858026 	 -5.312470 
O 	 1.911595 	 4.540838 	 5.788000 
O 	 -5.899306 	 6.913501 	 1.953180 
O 	 5.257004 	 -0.744074 	 -3.468023 
O 	 2.405230 	 5.876608 	 -6.872709 
O 	 -1.217954 	 -4.377434 	 -5.697515 
O 	 2.144944 	 -1.739441 	 6.022539 
O 	 -1.786791 	 0.248507 	 -5.717223 
O 	 -5.284046 	 -0.067172 	 1.619509 
O 	 -4.099771 	 -1.262523 	 5.097782 
O 	 -4.831553 	 4.829703 	 3.634298 
O 	 -6.005191 	 -4.820947 	 6.937235 
O 	 -3.786980 	 4.077488 	 6.227402 
O 	 -5.663817 	 -1.541660 	 -4.811126 
O 	 -1.806571 	 3.117324 	 -2.849777 
O 	 5.772400 	 -5.510944 	 6.382305 
O 	 2.124947 	 -4.377248 	 7.364545 
O 	 0.995968 	 1.958180 	 3.157945 
O 	 -3.279018 	 -6.803457 	 -2.908442 
O 	 -4.587153 	 2.244682 	 0.271493 
K 	 5.175420 	 4.981908 	 2.007176 
