333
conformation = 71
H 	 5.013306 	 -7.465129 	 -3.487513 
H 	 5.361498 	 -6.191696 	 -2.654832 
H 	 1.463556 	 4.726989 	 2.242420 
H 	 2.493822 	 3.839401 	 1.373409 
H 	 6.545783 	 -7.404286 	 3.815057 
H 	 6.669358 	 -6.298986 	 2.763507 
H 	 2.020169 	 -6.498153 	 -5.292590 
H 	 3.487098 	 -6.531868 	 -4.866912 
H 	 5.821747 	 6.066047 	 7.112608 
H 	 5.204114 	 6.563832 	 5.744251 
H 	 3.370024 	 5.692335 	 4.873527 
H 	 3.779855 	 7.035949 	 4.416326 
H 	 -5.673739 	 3.973598 	 -4.788117 
H 	 -6.614779 	 5.194752 	 -5.085395 
H 	 5.429631 	 0.216258 	 4.845420 
H 	 6.970647 	 0.051066 	 4.348947 
H 	 -5.996641 	 5.465749 	 -1.070576 
H 	 -6.158041 	 5.787330 	 0.434397 
H 	 6.642510 	 -1.884113 	 4.780705 
H 	 -6.876713 	 -2.623168 	 4.527271 
H 	 0.219533 	 -6.840234 	 -3.866679 
H 	 -0.080539 	 -5.604993 	 -4.699156 
H 	 -5.418446 	 -0.078179 	 4.715582 
H 	 -6.249688 	 1.212847 	 4.074497 
H 	 -0.818282 	 -2.174191 	 4.068442 
H 	 -0.906573 	 -1.505234 	 5.499736 
H 	 3.759801 	 -0.417050 	 6.105039 
H 	 4.584847 	 0.641767 	 7.154291 
H 	 -2.099358 	 -6.427293 	 0.135917 
H 	 -3.009981 	 -5.214538 	 0.006632 
H 	 3.116520 	 -5.707751 	 4.776420 
H 	 4.645918 	 -5.871448 	 5.186858 
H 	 0.523694 	 6.329781 	 3.350842 
H 	 -0.810835 	 5.381184 	 3.188210 
H 	 7.501309 	 3.233497 	 0.722861 
H 	 6.485475 	 2.060223 	 0.705977 
H 	 -4.982197 	 2.445795 	 -2.817289 
H 	 -6.357317 	 1.890635 	 -2.536810 
H 	 -2.761983 	 1.557485 	 -0.643490 
H 	 -1.579654 	 1.782804 	 -1.602994 
H 	 -5.424412 	 -4.428547 	 -2.695664 
H 	 -5.511043 	 -3.706482 	 -1.255759 
H 	 -1.298028 	 -0.659570 	 -0.735248 
H 	 -1.723946 	 -1.983498 	 -1.238453 
H 	 4.951404 	 4.846972 	 -3.253468 
H 	 3.522877 	 5.471661 	 -3.725842 
H 	 6.302168 	 -4.885734 	 -6.003977 
H 	 6.078176 	 -5.787976 	 -4.723938 
H 	 -1.678895 	 3.721762 	 7.287754 
H 	 -1.313381 	 4.575372 	 -6.476912 
H 	 -2.094034 	 -6.580127 	 4.498413 
H 	 -3.174596 	 -5.634741 	 3.977835 
H 	 -4.149440 	 -3.495648 	 2.513498 
H 	 -4.984149 	 -4.008221 	 3.609522 
H 	 -1.633903 	 -4.635288 	 -2.265961 
H 	 -3.097404 	 -4.227982 	 -2.082869 
H 	 4.208855 	 -3.314706 	 0.509241 
H 	 4.687370 	 -2.787220 	 1.890955 
H 	 4.873018 	 2.502885 	 -2.142363 
H 	 4.421615 	 3.013395 	 -0.725550 
H 	 1.197861 	 -6.119303 	 3.289096 
H 	 2.141341 	 -6.806845 	 2.333144 
H 	 4.083657 	 2.177339 	 5.844961 
H 	 3.669522 	 3.681818 	 5.669288 
H 	 3.033506 	 7.340044 	 -0.416805 
H 	 2.209620 	 6.399601 	 -1.314479 
H 	 4.976406 	 -0.632044 	 0.960589 
H 	 5.625363 	 0.010581 	 2.328011 
H 	 6.605882 	 4.531090 	 -6.014401 
H 	 5.238859 	 5.114510 	 -5.736197 
H 	 1.432447 	 4.289501 	 -3.807759 
H 	 0.939266 	 5.808268 	 -3.747061 
H 	 7.087829 	 4.034432 	 -1.898113 
H 	 7.165739 	 3.763090 	 -3.444088 
H 	 -2.569098 	 5.814559 	 -0.954918 
H 	 -1.701129 	 4.684114 	 -1.394331 
H 	 -1.628173 	 1.489606 	 5.248029 
H 	 -2.461961 	 1.939532 	 4.016965 
H 	 1.295734 	 -0.166543 	 2.930236 
H 	 1.181261 	 -1.505803 	 2.226006 
H 	 -3.387254 	 -3.139621 	 0.530294 
H 	 -2.033465 	 -3.079545 	 1.377130 
H 	 1.338034 	 2.430685 	 6.178090 
H 	 2.185336 	 1.141585 	 6.312177 
H 	 7.235213 	 -2.647928 	 6.991153 
H 	 -6.782740 	 -2.560256 	 -6.554192 
H 	 4.005964 	 -6.327257 	 2.605889 
H 	 3.941003 	 -5.642691 	 1.222281 
H 	 -3.097672 	 -0.363383 	 3.627239 
H 	 -3.595693 	 0.026540 	 2.262383 
H 	 -0.611101 	 6.071781 	 -2.403526 
H 	 -1.501706 	 7.270178 	 -2.879979 
H 	 6.313986 	 -4.285091 	 1.324968 
H 	 -7.150397 	 -4.913246 	 1.783706 
H 	 -6.473617 	 -2.576251 	 2.541647 
H 	 7.194699 	 -2.075330 	 1.732616 
H 	 -2.598899 	 3.190703 	 -3.401384 
H 	 -4.052866 	 2.548032 	 -4.586542 
H 	 6.734232 	 0.714534 	 -3.686312 
H 	 7.592688 	 1.279085 	 -4.885493 
H 	 -5.529440 	 -7.295235 	 -5.671284 
H 	 -7.018616 	 -6.857792 	 -5.701134 
H 	 0.349997 	 -3.271012 	 1.797549 
H 	 -0.410393 	 -2.402018 	 0.614337 
H 	 1.518832 	 1.707037 	 -2.826950 
H 	 2.539253 	 2.885672 	 -2.663940 
H 	 -0.100174 	 -1.197350 	 -3.234589 
H 	 -0.978476 	 -2.487570 	 -3.482939 
H 	 -1.700808 	 3.581986 	 2.085115 
H 	 -2.250570 	 4.717287 	 1.238617 
H 	 1.914399 	 -3.882289 	 4.037332 
H 	 1.077531 	 -4.582600 	 5.148648 
H 	 4.941068 	 6.402146 	 -1.011426 
H 	 6.431962 	 6.355862 	 -0.558879 
H 	 -0.096710 	 -5.574938 	 -0.622137 
H 	 0.364314 	 -5.103513 	 -1.982296 
H 	 0.432079 	 7.116542 	 -0.285849 
H 	 0.326328 	 -6.993492 	 1.083564 
H 	 -1.119444 	 1.686870 	 0.581998 
H 	 -1.556009 	 1.259330 	 2.006513 
H 	 -3.872389 	 -1.770647 	 -6.604692 
H 	 -4.063224 	 -3.155406 	 7.420947 
H 	 -0.105136 	 0.217027 	 6.606670 
H 	 -1.304421 	 -0.213998 	 -7.381517 
H 	 3.069718 	 -4.047640 	 -1.076069 
H 	 2.022689 	 -4.391840 	 0.074698 
H 	 -4.767008 	 -1.054581 	 0.267630 
H 	 -4.534914 	 -1.171686 	 -1.271148 
H 	 -5.717897 	 -5.410772 	 -0.273507 
H 	 -5.670044 	 -6.754514 	 0.461919 
H 	 -4.663938 	 1.478473 	 -6.925870 
H 	 -3.225091 	 1.273787 	 -6.306998 
H 	 -3.131186 	 -5.247928 	 -6.069054 
H 	 -3.194208 	 -6.555595 	 -6.995679 
H 	 6.567503 	 1.547612 	 -7.186436 
H 	 5.533489 	 2.755247 	 -7.001910 
H 	 5.401997 	 -4.823040 	 -0.442574 
H 	 6.815979 	 -5.503569 	 -0.691483 
H 	 -4.132389 	 4.760954 	 -2.857285 
H 	 -4.205818 	 6.389020 	 -2.646038 
H 	 -6.375265 	 -4.565831 	 -4.906381 
H 	 -5.518839 	 -3.266128 	 -4.552770 
H 	 3.263931 	 -1.715676 	 3.088341 
H 	 4.160986 	 -2.241945 	 4.206389 
H 	 -5.757486 	 3.139359 	 3.103969 
H 	 -7.212616 	 3.021008 	 3.587399 
H 	 -0.406784 	 6.810897 	 5.191477 
H 	 -1.068029 	 7.034813 	 6.571445 
H 	 -5.686696 	 4.274217 	 6.292124 
H 	 -6.309649 	 4.314085 	 -7.217014 
H 	 -5.729068 	 7.425132 	 6.547920 
H 	 -6.996031 	 6.874110 	 6.073934 
H 	 0.981302 	 2.003128 	 -5.496780 
H 	 -0.063770 	 2.964348 	 -6.095874 
H 	 1.455883 	 4.377863 	 -1.432965 
H 	 1.192776 	 5.098604 	 -0.170970 
H 	 5.525106 	 -2.392106 	 -5.944734 
H 	 4.213021 	 -3.196176 	 -5.246907 
H 	 -2.974119 	 6.044858 	 -6.862446 
H 	 -3.501133 	 6.168490 	 6.658566 
H 	 -4.683040 	 0.557002 	 -2.602652 
H 	 -3.266833 	 -0.008100 	 -2.631276 
H 	 4.341475 	 1.641095 	 1.634004 
H 	 2.928407 	 2.092770 	 2.208837 
H 	 -6.379984 	 0.964324 	 6.471593 
H 	 -6.467224 	 -0.124260 	 -7.385824 
H 	 -5.261741 	 -6.149211 	 3.029800 
H 	 -5.791460 	 -6.725482 	 4.357268 
H 	 6.231576 	 3.525541 	 5.048887 
H 	 7.242230 	 4.642822 	 5.212637 
H 	 3.801608 	 1.222709 	 -6.023619 
H 	 2.634212 	 0.244939 	 -5.811575 
H 	 -0.599758 	 -3.630355 	 5.809579 
H 	 -0.856977 	 -5.294545 	 5.949852 
H 	 2.139030 	 -0.178815 	 -2.149793 
H 	 2.263432 	 -0.187723 	 -3.621042 
H 	 2.464233 	 -2.509405 	 -3.561760 
H 	 2.572501 	 -4.024884 	 -3.994206 
H 	 3.152400 	 0.698569 	 -0.685631 
H 	 2.500866 	 -0.329661 	 0.173356 
H 	 -2.095764 	 5.583014 	 -4.165913 
H 	 -3.256068 	 4.653703 	 -4.804840 
H 	 0.649333 	 -1.514346 	 -4.950511 
H 	 1.608776 	 -2.436714 	 -5.769522 
H 	 1.253988 	 4.718678 	 5.388468 
H 	 2.127661 	 5.215779 	 6.599515 
H 	 -5.146430 	 6.158090 	 2.417397 
H 	 -6.571995 	 6.879163 	 2.159891 
H 	 5.017437 	 -1.215113 	 -2.610988 
H 	 5.133229 	 -1.372456 	 -4.082820 
H 	 2.061276 	 5.480632 	 -6.123000 
H 	 2.775335 	 6.744304 	 -6.361921 
H 	 -1.335915 	 -4.498283 	 -6.801500 
H 	 -1.230949 	 -3.343434 	 -5.785560 
H 	 2.430684 	 -2.565546 	 6.457756 
H 	 1.435290 	 -1.670493 	 5.626682 
H 	 -0.998103 	 0.808743 	 -5.520824 
H 	 -1.693455 	 -0.547911 	 -5.058698 
H 	 -5.952744 	 -0.506799 	 2.087575 
H 	 -5.496748 	 0.820603 	 1.363194 
H 	 -4.136645 	 -2.054719 	 4.680822 
H 	 -3.614350 	 -1.411380 	 6.045642 
H 	 -4.757137 	 5.458521 	 4.473376 
H 	 -3.874408 	 4.784340 	 3.481638 
H 	 -5.090710 	 -5.231882 	 -7.320918 
H 	 -5.700018 	 -4.816729 	 6.224897 
H 	 -3.756563 	 3.368146 	 7.084415 
H 	 -3.188352 	 3.465224 	 5.685492 
H 	 -6.160959 	 -1.029985 	 -4.729266 
H 	 -4.773396 	 -1.234259 	 -4.348804 
H 	 -1.090425 	 2.733875 	 -3.737959 
H 	 -5.071490 	 2.215537 	 -0.473480 
H 	 6.847896 	 -5.086273 	 6.320797 
H 	 6.069570 	 -6.436419 	 6.598161 
H 	 2.625218 	 -5.282472 	 -7.062814 
H 	 1.232601 	 -4.628364 	 7.312628 
H 	 0.423065 	 2.296337 	 3.828952 
H 	 0.499421 	 2.044853 	 2.317819 
H 	 -3.082174 	 -6.517297 	 -2.013197 
H 	 -2.910706 	 -5.862703 	 -3.286396 
H 	 -4.815800 	 3.317683 	 0.590408 
O 	 5.079705 	 -6.478626 	 -3.566048 
O 	 2.102442 	 4.751942 	 1.472339 
O 	 6.890247 	 -7.267836 	 2.931558 
O 	 2.918450 	 -6.505626 	 -5.660908 
O 	 5.945133 	 6.736746 	 6.377816 
O 	 4.043745 	 6.072311 	 4.314493 
O 	 -6.640172 	 4.205612 	 -5.024925 
O 	 6.049695 	 -0.336986 	 4.295032 
O 	 -6.678235 	 5.663430 	 -0.401236 
O 	 7.270866 	 -2.569583 	 5.118313 
O 	 0.595948 	 -5.932905 	 -4.061398 
O 	 -6.181091 	 0.532557 	 4.836164 
O 	 -0.421214 	 -2.186267 	 4.933950 
O 	 4.168328 	 0.494004 	 6.256861 
O 	 -2.980653 	 -6.158076 	 -0.216981 
O 	 3.975094 	 -6.046054 	 4.473131 
O 	 0.023552 	 5.561616 	 3.755467 
O 	 6.691212 	 2.922419 	 0.328288 
O 	 -5.522007 	 1.967486 	 -2.105489 
O 	 -1.926342 	 1.137514 	 -0.973690 
O 	 -5.107562 	 -4.483690 	 -1.735700 
O 	 -1.028819 	 -1.583476 	 -0.766861 
O 	 4.502826 	 5.467023 	 -3.814889 
O 	 6.781517 	 -5.426896 	 -5.364793 
O 	 -0.899560 	 4.196436 	 -7.259219 
O 	 -2.212700 	 -5.795949 	 3.862911 
O 	 -4.759302 	 -3.134329 	 3.207942 
O 	 -2.326330 	 -4.079940 	 -2.695878 
O 	 4.977287 	 -2.847808 	 0.943509 
O 	 4.118334 	 2.575816 	 -1.528813 
O 	 1.204608 	 -6.896428 	 2.730028 
O 	 4.434917 	 3.025072 	 5.571257 
O 	 2.900460 	 7.101583 	 -1.363100 
O 	 5.259930 	 0.208513 	 1.379980 
O 	 5.760484 	 4.740954 	 -6.493858 
O 	 1.558088 	 5.217778 	 -4.263418 
O 	 6.533031 	 3.954531 	 -2.720860 
O 	 -1.696131 	 5.433328 	 -0.775587 
O 	 -2.177043 	 2.278921 	 4.890559 
O 	 1.782469 	 -0.750540 	 2.300045 
O 	 -2.865714 	 -3.609526 	 1.194994 
O 	 1.245280 	 1.496115 	 6.375111 
O 	 7.333897 	 -2.211430 	 -6.993091 
O 	 3.683041 	 -6.447258 	 1.689737 
O 	 -2.802213 	 0.129073 	 2.838729 
O 	 -0.760729 	 6.669062 	 -3.199267 
O 	 6.842102 	 -4.587509 	 2.105826 
O 	 -6.975799 	 -1.772593 	 2.265462 
O 	 -4.243647 	 3.284365 	 -3.983822 
O 	 7.639219 	 0.676236 	 -4.129517 
O 	 -6.414551 	 7.266559 	 -5.901446 
O 	 -0.256565 	 -2.528134 	 1.602069 
O 	 1.586442 	 2.745387 	 -2.707688 
O 	 -0.719836 	 -1.628633 	 -3.908171 
O 	 -2.157888 	 4.433343 	 2.171008 
O 	 1.708403 	 -4.758376 	 4.363214 
O 	 5.513534 	 6.204221 	 -0.238643 
O 	 -0.089914 	 -4.744131 	 -1.168485 
O 	 -0.123882 	 -7.124816 	 0.188381 
O 	 -1.055334 	 1.984279 	 1.547332 
O 	 -3.464108 	 -2.414070 	 -7.238240 
O 	 -1.019723 	 -0.110407 	 6.565667 
O 	 2.979119 	 -4.422530 	 -0.189141 
O 	 -4.660215 	 -1.765199 	 -0.476594 
O 	 -6.177165 	 -5.930627 	 0.417266 
O 	 -3.779336 	 1.878069 	 -6.873274 
O 	 -3.690072 	 -5.749060 	 -6.700364 
O 	 5.726360 	 1.838351 	 -6.708961 
O 	 5.963939 	 -5.303472 	 -1.111530 
O 	 -4.353283 	 5.490332 	 -2.243854 
O 	 -5.498250 	 -4.270389 	 -4.629971 
O 	 3.734388 	 -2.524134 	 3.327720 
O 	 -6.528738 	 2.503552 	 3.029705 
O 	 -0.437738 	 -7.409876 	 5.928292 
O 	 -6.575964 	 4.397097 	 6.737034 
O 	 -6.076088 	 6.949911 	 5.765203 
O 	 0.067208 	 2.242957 	 -5.428159 
O 	 1.074868 	 5.196833 	 -1.116307 
O 	 4.568813 	 -2.349585 	 -5.663983 
O 	 -3.183079 	 6.718860 	 7.385708 
O 	 -4.196202 	 -0.279337 	 -2.780584 
O 	 3.727353 	 2.406731 	 1.717889 
O 	 -6.565913 	 0.834519 	 -7.423047 
O 	 -5.274573 	 -5.940064 	 4.025936 
O 	 6.733366 	 4.140117 	 4.465305 
O 	 2.994151 	 1.089710 	 -5.474224 
O 	 -0.448078 	 -4.485923 	 6.344369 
O 	 1.549219 	 0.010254 	 -2.956336 
O 	 2.723548 	 -3.394338 	 -3.263157 
O 	 2.851348 	 -0.252725 	 -0.730695 
O 	 -2.600088 	 5.381215 	 -5.021928 
O 	 1.578575 	 -1.589864 	 -5.304950 
O 	 2.092918 	 4.590309 	 5.865394 
O 	 -5.591202 	 6.844283 	 1.891875 
O 	 5.290069 	 -0.744865 	 -3.403458 
O 	 2.379244 	 5.997288 	 -6.890395 
O 	 -1.306185 	 -4.325239 	 -5.858179 
O 	 2.291670 	 -1.663663 	 6.124678 
O 	 -1.685968 	 0.145448 	 -5.737313 
O 	 -5.236124 	 -0.061478 	 1.583053 
O 	 -3.877322 	 -1.230217 	 5.090779 
O 	 -4.795334 	 4.899892 	 3.684276 
O 	 -5.944480 	 -4.782654 	 7.151581 
O 	 -3.753417 	 3.971475 	 6.327967 
O 	 -5.431635 	 -1.600653 	 -4.942653 
O 	 -1.625450 	 3.222728 	 -3.060881 
O 	 5.936123 	 -5.467869 	 6.382050 
O 	 2.199265 	 -4.442154 	 -7.366417 
O 	 1.056068 	 2.013021 	 3.168005 
O 	 -3.131777 	 -6.798394 	 -2.976436 
O 	 -4.646425 	 2.379057 	 0.415784 
K 	 5.213034 	 4.990816 	 2.041024 
