333
conformation = 7
H 	 750.569199 	 226.215047 	 -44.317208 
H 	 751.203043 	 -772.467996 	 -43.705181 
H 	 -237.883051 	 223.597970 	 -39.059344 
H 	 -236.917541 	 222.453853 	 -39.570113 
H 	 -247.044240 	 -773.546077 	 -51.653683 
H 	 752.616577 	 -772.831625 	 -38.032841 
H 	 -236.907363 	 -772.795407 	 -45.892966 
H 	 749.758125 	 -772.655437 	 -45.759373 
H 	 751.730519 	 224.757176 	 -48.857559 
H 	 751.225133 	 225.148982 	 -50.290966 
H 	 749.262158 	 224.385702 	 -50.943754 
H 	 749.766105 	 225.707099 	 -51.519693 
H 	 -244.839906 	 222.673807 	 -45.983863 
H 	 -245.389633 	 224.093528 	 -46.243173 
H 	 751.263882 	 218.682735 	 -50.948556 
H 	 752.819390 	 218.924766 	 -51.430362 
H 	 -245.072683 	 224.465551 	 -42.055066 
H 	 -245.510525 	 225.176207 	 -40.770894 
H 	 752.802692 	 216.619866 	 -51.266174 
H 	 -245.879345 	 215.745892 	 -51.012086 
H 	 -238.962297 	 -772.792506 	 -44.690783 
H 	 -239.284744 	 -771.627994 	 -45.617291 
H 	 -244.730733 	 218.529017 	 -50.966399 
H 	 -245.299431 	 219.890601 	 948.257041 
H 	 -239.983368 	 216.690129 	 948.170834 
H 	 -240.172384 	 217.214615 	 -50.311584 
H 	 749.434479 	 218.151043 	 -49.520680 
H 	 750.449936 	 219.176643 	 -48.617347 
H 	 -241.028430 	 -772.825384 	 -40.652063 
H 	 -242.272827 	 -771.848535 	 -40.491328 
H 	 -236.092028 	 -772.183513 	 -51.379418 
H 	 750.367629 	 -772.237052 	 -50.622080 
H 	 -238.970733 	 225.277042 	 -37.828671 
H 	 -239.967182 	 223.981293 	 -37.866880 
H 	 -246.811501 	 221.452442 	 -39.895251 
H 	 751.856859 	 220.771976 	 -40.445693 
H 	 -244.170739 	 221.317448 	 -44.055029 
H 	 -245.576072 	 220.563583 	 -43.868600 
H 	 -242.298149 	 220.167849 	 -41.722558 
H 	 -241.205219 	 220.576521 	 -42.716789 
H 	 -244.577416 	 214.585869 	 -43.871205 
H 	 -244.246289 	 215.192482 	 -42.423211 
H 	 -240.892414 	 217.869551 	 -42.054747 
H 	 -240.751868 	 216.302660 	 -42.329837 
H 	 750.726594 	 223.760577 	 -44.089407 
H 	 749.263120 	 224.190112 	 -44.793572 
H 	 752.197180 	 -771.892062 	 -47.438639 
H 	 752.039365 	 -772.148481 	 -45.885159 
H 	 -240.525767 	 223.281036 	 -48.849451 
H 	 -241.050585 	 223.390013 	 -47.391337 
H 	 -241.063064 	 -772.980521 	 948.139047 
H 	 -242.218135 	 -772.088538 	 947.768409 
H 	 -243.418211 	 215.356206 	 -38.514621 
H 	 -244.238234 	 214.641260 	 947.544486 
H 	 -240.957138 	 -770.962838 	 -43.061749 
H 	 -242.338444 	 -770.566375 	 -43.509505 
H 	 750.440627 	 215.785430 	 -40.772448 
H 	 750.350651 	 216.207357 	 -39.269146 
H 	 750.572358 	 221.388638 	 -42.996810 
H 	 750.286231 	 221.905505 	 -41.529845 
H 	 -238.107542 	 -772.339723 	 -37.749243 
H 	 -237.269689 	 -773.454749 	 -38.515443 
H 	 750.220517 	 220.752415 	 -50.566328 
H 	 749.528229 	 222.129361 	 -50.483193 
H 	 -236.307978 	 226.195011 	 -41.490019 
H 	 -236.599864 	 225.269448 	 -42.577433 
H 	 751.268768 	 218.073965 	 -39.876543 
H 	 751.645161 	 218.894014 	 -38.599549 
H 	 752.075076 	 223.269597 	 -46.783883 
H 	 750.655632 	 223.605269 	 -46.904432 
H 	 -237.868610 	 222.945119 	 -45.094263 
H 	 -238.462760 	 224.352733 	 -44.970040 
H 	 752.787281 	 222.769663 	 -42.799106 
H 	 -246.870556 	 222.922973 	 -44.286009 
H 	 -241.889412 	 223.959630 	 -42.091885 
H 	 -240.418255 	 223.393324 	 -41.988724 
H 	 -241.689900 	 220.657645 	 -50.289950 
H 	 -241.602173 	 220.292428 	 948.289704 
H 	 -237.414816 	 219.236490 	 -38.592777 
H 	 -238.206179 	 217.985648 	 -38.670362 
H 	 -242.839704 	 215.811476 	 -40.757296 
H 	 -241.559863 	 215.659626 	 -39.695937 
H 	 -237.936483 	 221.488458 	 -49.441487 
H 	 -237.273933 	 220.081857 	 -49.255340 
H 	 -246.892235 	 216.964047 	 -49.030349 
H 	 -246.305439 	 215.988723 	 -47.934866 
H 	 749.921941 	 -772.588370 	 -38.730935 
H 	 749.400438 	 -772.262010 	 -40.168093 
H 	 -241.754709 	 218.153267 	 947.868676 
H 	 -242.630150 	 218.602971 	 -38.329509 
H 	 -239.713723 	 225.211773 	 -43.137442 
H 	 -240.853430 	 225.955325 	 -43.929609 
H 	 751.888559 	 214.579601 	 -39.219929 
H 	 -246.836742 	 -771.139283 	 -39.968458 
H 	 -245.601367 	 216.317585 	 -38.361540 
H 	 -246.843128 	 216.223360 	 -39.306490 
H 	 -241.852714 	 221.922208 	 -44.276378 
H 	 -243.167970 	 221.452246 	 -45.814867 
H 	 752.864804 	 218.773007 	 -44.756964 
H 	 752.711030 	 219.887511 	 -45.639967 
H 	 -244.810464 	 -773.537774 	 -46.889386 
H 	 -246.269258 	 226.342160 	 -46.396087 
H 	 -239.027589 	 215.485198 	 -39.773524 
H 	 -239.755971 	 216.849093 	 -40.015745 
H 	 -237.819164 	 220.645463 	 -43.780286 
H 	 -236.516045 	 221.382977 	 -43.198801 
H 	 -239.388313 	 217.583034 	 -44.487828 
H 	 -240.477205 	 216.585938 	 -44.257465 
H 	 -241.259716 	 222.343245 	 -39.029598 
H 	 -241.492640 	 223.538145 	 -39.921289 
H 	 -237.041470 	 214.848245 	 -51.298301 
H 	 -238.311944 	 -771.044319 	 -50.750471 
H 	 751.048803 	 225.245216 	 -41.950993 
H 	 752.550211 	 224.757224 	 -41.605844 
H 	 -239.103013 	 -772.075175 	 -42.073088 
H 	 -238.837813 	 -770.996612 	 -43.129271 
H 	 -239.597175 	 225.544667 	 -40.813935 
H 	 -238.962691 	 -773.312850 	 -39.923745 
H 	 -240.395231 	 220.478878 	 -40.516360 
H 	 -240.901015 	 219.855422 	 -39.204724 
H 	 -243.357266 	 216.587397 	 -47.852727 
H 	 -242.811627 	 215.194601 	 -48.377792 
H 	 -239.484405 	 219.251376 	 -49.402811 
H 	 -240.425708 	 218.475685 	 -48.353270 
H 	 749.395845 	 -771.036501 	 -42.165242 
H 	 -237.048760 	 -770.619664 	 -41.502792 
H 	 -244.051416 	 217.409875 	 -40.817447 
H 	 -243.596901 	 217.390136 	 -42.341029 
H 	 -244.929785 	 -771.468529 	 -41.476267 
H 	 -244.769056 	 -772.684387 	 -40.482412 
H 	 -243.814670 	 220.161555 	 -48.215844 
H 	 -242.410042 	 220.158582 	 -47.553641 
H 	 -242.041898 	 -771.592897 	 -47.434755 
H 	 -242.688388 	 -772.491563 	 -48.496255 
H 	 752.623583 	 220.137607 	 -48.264648 
H 	 751.403780 	 221.090792 	 -48.193252 
H 	 751.418989 	 -771.181288 	 -41.476784 
H 	 752.347869 	 -772.306094 	 -41.929521 
H 	 -244.073280 	 223.583847 	 -43.835676 
H 	 -243.493224 	 225.035281 	 -43.571684 
H 	 -245.661369 	 -770.965598 	 -45.937990 
H 	 -244.976397 	 215.546563 	 -45.590551 
H 	 -236.051776 	 216.881590 	 -37.707813 
H 	 750.372169 	 216.651420 	 948.076100 
H 	 -245.372458 	 222.029996 	 -38.123317 
H 	 -246.662974 	 221.667186 	 947.729773 
H 	 -239.464977 	 225.317762 	 -50.607388 
H 	 -239.695147 	 225.747657 	 -49.188958 
H 	 -244.854925 	 222.792190 	 -49.359362 
H 	 -245.897986 	 223.028491 	 -48.278298 
H 	 -244.712471 	 225.386186 	 -49.461790 
H 	 -245.954918 	 225.051278 	 -50.085274 
H 	 -238.245616 	 220.666271 	 -46.334955 
H 	 -239.224839 	 221.764352 	 -46.909609 
H 	 -237.718045 	 222.993451 	 -42.573951 
H 	 -237.890436 	 223.789558 	 -41.225817 
H 	 751.428825 	 216.622491 	 -47.346598 
H 	 750.854764 	 215.532539 	 -46.315784 
H 	 -242.246022 	 225.217676 	 -47.527963 
H 	 -242.348393 	 224.462656 	 -48.890308 
H 	 -243.985284 	 219.322424 	 -43.508231 
H 	 -242.724740 	 218.604009 	 -44.093357 
H 	 750.023579 	 220.594511 	 -39.216688 
H 	 -236.079775 	 221.238315 	 -38.152617 
H 	 -245.602606 	 219.477151 	 -49.312937 
H 	 -245.623937 	 218.677006 	 -48.006785 
H 	 -244.798404 	 -772.936993 	 -37.582565 
H 	 -244.296930 	 -772.720714 	 -51.134248 
H 	 751.706944 	 222.249279 	 -51.225733 
H 	 -246.979704 	 222.672392 	 -50.570283 
H 	 749.602423 	 219.903388 	 -46.159963 
H 	 -236.326848 	 218.767720 	 -46.790011 
H 	 -240.080803 	 214.904762 	 -50.249423 
H 	 -240.220256 	 -771.853354 	 -50.201168 
H 	 -237.108774 	 218.664474 	 -43.555517 
H 	 -237.261444 	 218.822600 	 -44.988119 
H 	 -236.714826 	 215.601182 	 -44.866788 
H 	 -236.691958 	 -770.943690 	 -44.253440 
H 	 749.581320 	 219.277427 	 -41.753763 
H 	 -236.368637 	 218.573581 	 -40.764410 
H 	 -241.189896 	 224.255010 	 -45.253253 
H 	 -242.554343 	 223.612549 	 -45.584327 
H 	 -238.429611 	 216.552272 	 -46.281384 
H 	 -237.293071 	 216.461684 	 -47.324294 
H 	 -238.028625 	 223.548203 	 -50.757289 
H 	 -237.256662 	 223.841897 	 -49.388247 
H 	 -244.650223 	 224.942109 	 -38.810724 
H 	 -246.095139 	 225.670418 	 -38.588307 
H 	 751.292246 	 217.316029 	 -43.858697 
H 	 750.893013 	 217.469765 	 -45.309222 
H 	 -237.023350 	 224.586313 	 -46.972815 
H 	 -236.399394 	 225.541306 	 -47.827189 
H 	 -239.849169 	 214.700279 	 -47.507171 
H 	 -240.647875 	 215.126080 	 -46.145421 
H 	 -236.805093 	 216.062472 	 -49.587112 
H 	 -237.926363 	 216.966847 	 -50.260449 
H 	 -240.271690 	 219.741678 	 -46.454858 
H 	 -240.893814 	 218.325491 	 -46.107358 
H 	 -245.181898 	 218.406221 	 -39.009140 
H 	 -244.437841 	 219.704336 	 -39.729560 
H 	 -243.519381 	 216.748590 	 -51.446201 
H 	 -243.014285 	 217.144709 	 -49.980824 
H 	 -243.977536 	 223.737737 	 -51.424400 
H 	 -242.972201 	 223.495054 	 -37.658601 
H 	 -244.474900 	 -771.365593 	 -48.432894 
H 	 -244.716759 	 -771.242116 	 -49.947133 
H 	 -242.858661 	 222.193848 	 -49.045999 
H 	 -242.384046 	 222.489331 	 -50.460735 
H 	 -245.516143 	 217.906937 	 -46.224028 
H 	 -244.369030 	 217.813608 	 -45.167061 
H 	 -240.342266 	 221.499364 	 -44.394804 
H 	 -244.210186 	 221.204939 	 -41.636149 
H 	 752.599734 	 -771.489838 	 -49.775571 
H 	 751.834846 	 -772.814633 	 -49.469993 
H 	 -236.391045 	 -770.928606 	 -47.901449 
H 	 -237.521434 	 -771.430199 	 -48.830581 
H 	 -238.158636 	 220.504528 	 948.249643 
H 	 -239.076512 	 220.813505 	 -38.180944 
H 	 -242.446093 	 -772.632885 	 -43.057218 
H 	 -242.613144 	 -772.488486 	 -44.530826 
H 	 -243.271766 	 221.813432 	 -40.458345 
O 	 750.987195 	 -772.908147 	 -44.545699 
O 	 -237.225475 	 223.381341 	 -39.736797 
O 	 752.634632 	 226.261153 	 -37.654575 
O 	 -236.064758 	 -772.787213 	 -46.440977 
O 	 751.949026 	 225.344448 	 -49.618086 
O 	 749.957757 	 224.735601 	 -51.596011 
O 	 -245.689295 	 223.158502 	 -46.137984 
O 	 751.927527 	 218.522339 	 948.338653 
O 	 -245.826241 	 224.441081 	 -41.408039 
O 	 -246.754829 	 216.010675 	 -50.654712 
O 	 -238.514746 	 -772.021720 	 -45.115376 
O 	 -245.382216 	 219.289666 	 -50.964674 
O 	 -239.801501 	 216.497853 	 -50.881153 
O 	 750.018652 	 218.921634 	 -49.483188 
O 	 -241.981882 	 -772.719710 	 -40.889395 
O 	 749.948639 	 -772.587066 	 -51.464695 
O 	 -239.234376 	 224.398659 	 947.733727 
O 	 752.466072 	 221.541712 	 -40.575121 
O 	 -244.701032 	 220.729757 	 -43.358741 
O 	 -241.449125 	 219.843615 	 -42.098968 
O 	 -244.111287 	 -770.685453 	 -43.001184 
O 	 -240.220288 	 217.146325 	 -42.087264 
O 	 750.255580 	 224.171758 	 -44.896797 
O 	 752.613694 	 -771.668401 	 -46.556146 
O 	 -240.295079 	 222.985093 	 -47.962685 
O 	 -241.259734 	 -772.069826 	 947.973012 
O 	 -244.012694 	 215.549317 	 -37.760454 
O 	 -241.380803 	 214.704161 	 -43.717561 
O 	 750.979576 	 216.088918 	 -40.028583 
O 	 750.052838 	 221.223414 	 -42.204341 
O 	 -238.188840 	 -773.251778 	 -38.229117 
O 	 750.371347 	 221.710812 	 -50.400271 
O 	 -235.966635 	 225.997237 	 -42.374424 
O 	 751.294186 	 218.984992 	 -39.498746 
O 	 751.389505 	 223.312678 	 -47.451985 
O 	 -237.687573 	 223.901383 	 -45.325933 
O 	 752.408147 	 222.653335 	 -43.699689 
O 	 -241.080176 	 223.965728 	 -41.512801 
O 	 -241.256213 	 220.955703 	 -51.063763 
O 	 -237.262527 	 218.274902 	 -38.693494 
O 	 -242.377532 	 215.271398 	 -40.000407 
O 	 -238.080623 	 220.482811 	 -49.565437 
O 	 -246.737649 	 216.859952 	 -48.054425 
O 	 749.477450 	 -773.009487 	 -39.517477 
O 	 -241.686809 	 218.736164 	 -37.996537 
O 	 -239.990089 	 225.416428 	 -44.041504 
O 	 752.728128 	 -770.987941 	 -39.151697 
O 	 -246.261958 	 216.855457 	 -38.812417 
O 	 -243.357152 	 222.005720 	 -45.029278 
O 	 -246.574344 	 219.367511 	 -45.234353 
O 	 -245.541689 	 225.830363 	 -46.769785 
O 	 -239.565981 	 216.197954 	 -39.313535 
O 	 -237.370507 	 221.530615 	 -43.686032 
O 	 -240.060634 	 217.103564 	 -44.961182 
O 	 -241.506286 	 223.279947 	 -39.010068 
O 	 -237.652986 	 -771.000867 	 -51.460068 
O 	 751.574001 	 224.704470 	 -41.349041 
O 	 -239.109295 	 -771.118251 	 -42.210406 
O 	 -239.288160 	 -773.535447 	 -40.815320 
O 	 -240.443608 	 220.626830 	 -39.523351 
O 	 -242.741570 	 216.153532 	 -48.439974 
O 	 -240.194000 	 218.519775 	 -49.298560 
O 	 -236.095245 	 -770.681771 	 -41.331272 
O 	 -243.859586 	 216.787266 	 -41.569899 
O 	 -245.437956 	 -772.114813 	 -40.944608 
O 	 -243.070068 	 220.727590 	 -47.968774 
O 	 -242.914390 	 -772.007823 	 -47.659220 
O 	 751.709093 	 220.207177 	 -47.890579 
O 	 751.743782 	 -771.616109 	 -42.275465 
O 	 -243.847521 	 224.242148 	 -43.176387 
O 	 -244.807528 	 -770.558015 	 -45.589283 
O 	 749.786726 	 216.206331 	 -37.636884 
O 	 -246.001873 	 221.306380 	 -38.078972 
O 	 -239.405388 	 226.085962 	 -50.023106 
O 	 -245.768625 	 223.067962 	 -49.261069 
O 	 -245.264124 	 225.764163 	 -50.171810 
O 	 -239.158193 	 221.087488 	 -46.225349 
O 	 -238.093537 	 223.838217 	 -42.172936 
O 	 750.675477 	 216.359052 	 -46.768681 
O 	 -242.261579 	 225.367193 	 -48.504673 
O 	 -243.633474 	 218.399798 	 -43.801606 
O 	 749.538950 	 221.398727 	 -38.941403 
O 	 -245.563509 	 219.635577 	 -48.293410 
O 	 -244.520764 	 -772.195967 	 948.077867 
O 	 752.512278 	 222.807851 	 -51.413748 
O 	 -236.371620 	 219.715664 	 -46.587607 
O 	 -239.792480 	 -771.082720 	 -49.822430 
O 	 -237.846343 	 218.728738 	 -44.217353 
O 	 -236.281098 	 215.040926 	 -44.211439 
O 	 -236.192880 	 218.563253 	 -41.747693 
O 	 -241.862392 	 224.261025 	 -45.930177 
O 	 -237.512673 	 216.776541 	 -46.406658 
O 	 -237.278000 	 223.287120 	 -50.181802 
O 	 -245.131793 	 225.752695 	 -38.959561 
O 	 751.186923 	 218.041841 	 -44.533753 
O 	 -236.692797 	 224.608826 	 -47.896271 
O 	 -240.282677 	 -770.716435 	 -46.669643 
O 	 -237.016950 	 216.988450 	 -49.914822 
O 	 -240.945068 	 219.089254 	 -46.744910 
O 	 -244.372647 	 218.730521 	 -39.405848 
O 	 -243.287623 	 217.526546 	 -50.863382 
O 	 -243.947629 	 223.587437 	 947.616544 
O 	 -245.168319 	 -771.092354 	 -49.092783 
O 	 -242.885991 	 222.896156 	 -49.718124 
O 	 -244.835952 	 217.265163 	 -45.835191 
O 	 -240.980279 	 221.876358 	 -43.754084 
O 	 751.727076 	 -771.811318 	 -49.518020 
O 	 -237.025237 	 -770.642981 	 -48.601379 
O 	 -238.109581 	 220.739223 	 -37.842184 
O 	 -242.460541 	 -773.209619 	 -43.909777 
O 	 -243.642440 	 221.012927 	 -40.825746 
K 	 751.164077 	 223.784050 	 -39.003934 
