333
conformation = 8
H 	 5.087907 	 7.303874 	 0.056679 
H 	 5.721750 	 -6.278890 	 0.668706 
H 	 1.735936 	 4.686797 	 5.314543 
H 	 2.701446 	 3.542680 	 4.803773 
H 	 -7.425253 	 -7.356971 	 -7.279796 
H 	 7.135285 	 -6.642519 	 6.341045 
H 	 2.711624 	 -6.606301 	 -1.519080 
H 	 4.276833 	 -6.466331 	 -1.385486 
H 	 6.249227 	 5.846002 	 -4.483672 
H 	 5.743841 	 6.237809 	 -5.917080 
H 	 3.780866 	 5.474529 	 -6.569868 
H 	 4.284813 	 6.795926 	 -7.145807 
H 	 -5.220920 	 3.762633 	 -1.609977 
H 	 -5.770646 	 5.182355 	 -1.869287 
H 	 5.782590 	 -0.228438 	 -6.574670 
H 	 7.338098 	 0.013593 	 -7.056475 
H 	 -5.453696 	 5.554378 	 2.318820 
H 	 -5.891538 	 6.265034 	 3.602992 
H 	 7.321399 	 -2.291307 	 -6.892288 
H 	 -6.260358 	 -3.165282 	 -6.638200 
H 	 0.656689 	 -6.603401 	 -0.316897 
H 	 0.334243 	 -5.438889 	 -1.243404 
H 	 -5.111746 	 -0.382156 	 -6.592512 
H 	 -5.680444 	 0.979427 	 7.530648 
H 	 -0.364381 	 -2.221044 	 7.444441 
H 	 -0.553397 	 -1.696558 	 -5.937697 
H 	 3.953187 	 -0.760131 	 -5.146794 
H 	 4.968644 	 0.265469 	 -4.243461 
H 	 -1.409443 	 -6.636278 	 3.721823 
H 	 -2.653841 	 -5.659429 	 3.882559 
H 	 3.526959 	 -5.994407 	 -7.005532 
H 	 4.886337 	 -6.047947 	 -6.248193 
H 	 0.648254 	 6.365869 	 6.545215 
H 	 -0.348195 	 5.070120 	 6.507006 
H 	 -7.192514 	 2.541268 	 4.478635 
H 	 6.375567 	 1.860803 	 3.928194 
H 	 -4.551752 	 2.406275 	 0.318857 
H 	 -5.957086 	 1.652410 	 0.505286 
H 	 -2.679162 	 1.256676 	 2.651328 
H 	 -1.586232 	 1.665348 	 1.657097 
H 	 -4.958429 	 -4.325304 	 0.502681 
H 	 -4.627302 	 -3.718691 	 1.950675 
H 	 -1.273428 	 -1.041622 	 2.319139 
H 	 -1.132881 	 -2.608514 	 2.044050 
H 	 5.245301 	 4.849404 	 0.284479 
H 	 3.781828 	 5.278939 	 -0.419686 
H 	 6.715888 	 -5.702956 	 -3.064752 
H 	 6.558073 	 -5.959375 	 -1.511273 
H 	 -0.906780 	 4.369863 	 -4.475564 
H 	 -1.431598 	 4.478840 	 -3.017450 
H 	 -1.444078 	 -6.791415 	 7.412654 
H 	 -2.599148 	 -5.899432 	 7.042017 
H 	 -3.799224 	 -3.554967 	 5.859265 
H 	 -4.619247 	 -4.269913 	 6.818093 
H 	 -1.338151 	 -4.773732 	 1.312137 
H 	 -2.719458 	 -4.377269 	 0.864382 
H 	 4.959335 	 -3.125743 	 3.601439 
H 	 4.869359 	 -2.703816 	 5.104740 
H 	 5.091066 	 2.477465 	 1.377076 
H 	 4.804939 	 2.994332 	 2.844042 
H 	 1.511445 	 -6.150617 	 6.624643 
H 	 2.349297 	 -7.265643 	 5.858443 
H 	 4.739225 	 1.841242 	 -6.192442 
H 	 4.046937 	 3.218188 	 -6.109306 
H 	 3.311008 	 7.283838 	 2.883867 
H 	 3.019123 	 6.358275 	 1.796453 
H 	 5.787476 	 -0.837208 	 4.497343 
H 	 6.163868 	 -0.017159 	 5.774337 
H 	 6.593783 	 4.358424 	 -2.409997 
H 	 5.174339 	 4.694095 	 -2.530545 
H 	 1.750377 	 4.033946 	 -0.720377 
H 	 1.156227 	 5.441560 	 -0.596154 
H 	 7.305989 	 3.858489 	 1.574781 
H 	 -7.251569 	 4.011800 	 0.087878 
H 	 -2.270426 	 5.048457 	 2.282002 
H 	 -0.799268 	 4.482151 	 2.385163 
H 	 -2.070913 	 1.746472 	 -5.916064 
H 	 -1.983186 	 1.381255 	 7.563311 
H 	 2.204171 	 0.325317 	 5.781110 
H 	 1.412807 	 -0.925525 	 5.703524 
H 	 -3.220717 	 -3.099697 	 3.616590 
H 	 -1.940876 	 -3.251547 	 4.677950 
H 	 1.682504 	 2.577285 	 -5.067600 
H 	 2.345054 	 1.170683 	 -4.881454 
H 	 -7.273249 	 -1.947126 	 -4.656463 
H 	 -6.686452 	 -2.922450 	 -3.560980 
H 	 4.440649 	 -6.399264 	 5.642952 
H 	 3.919146 	 -6.072904 	 4.205794 
H 	 -2.135723 	 -0.757906 	 7.142283 
H 	 -3.011163 	 -0.308202 	 6.044378 
H 	 -0.094737 	 6.300600 	 1.236445 
H 	 -1.234444 	 7.044152 	 0.444277 
H 	 6.407267 	 -4.331572 	 5.153958 
H 	 -7.217755 	 -4.950178 	 4.405429 
H 	 -5.982380 	 -2.593588 	 6.012347 
H 	 -7.224141 	 -2.687814 	 5.067396 
H 	 -2.233727 	 3.011035 	 0.097508 
H 	 -3.548983 	 2.541073 	 -1.440981 
H 	 7.383511 	 -0.138166 	 -0.383078 
H 	 7.229737 	 0.976337 	 -1.266080 
H 	 -5.191477 	 -7.348668 	 -2.515500 
H 	 -6.650271 	 7.430987 	 -2.022201 
H 	 0.591397 	 -3.425976 	 4.600362 
H 	 -0.136984 	 -2.062080 	 4.358141 
H 	 1.799823 	 1.734290 	 0.593600 
H 	 3.102942 	 2.471804 	 1.175085 
H 	 0.230674 	 -1.328139 	 -0.113942 
H 	 -0.858218 	 -2.325235 	 0.116421 
H 	 -1.640729 	 3.432071 	 5.344288 
H 	 -1.873653 	 4.626972 	 4.452597 
H 	 2.577517 	 -4.062928 	 -6.924415 
H 	 1.307042 	 -4.855213 	 -6.376585 
H 	 5.567511 	 6.334043 	 2.422893 
H 	 7.068919 	 5.846051 	 2.768043 
H 	 0.515973 	 -5.886069 	 2.300798 
H 	 0.781174 	 -4.807506 	 1.244616 
H 	 0.021812 	 6.633494 	 3.559951 
H 	 0.656296 	 -7.123744 	 4.450142 
H 	 -0.776244 	 1.567705 	 3.857526 
H 	 -1.282029 	 0.944248 	 5.169163 
H 	 -3.738279 	 -2.323776 	 -3.478841 
H 	 -3.192640 	 -3.716572 	 -4.003905 
H 	 0.134582 	 0.340203 	 -5.028924 
H 	 -0.806721 	 -0.435488 	 -3.979384 
H 	 3.914553 	 -4.847395 	 2.208644 
H 	 2.570227 	 -4.430558 	 2.871095 
H 	 -4.432429 	 -1.501299 	 3.556439 
H 	 -3.977914 	 -1.521037 	 2.032857 
H 	 -5.310799 	 -5.279423 	 2.897620 
H 	 -5.150069 	 -6.495281 	 3.891474 
H 	 -4.195683 	 1.250382 	 -3.841958 
H 	 -2.791055 	 1.247409 	 -3.179755 
H 	 -2.422911 	 -5.403791 	 -3.060869 
H 	 -3.069401 	 -6.302457 	 -4.122369 
H 	 7.142290 	 1.226434 	 -3.890762 
H 	 5.922488 	 2.179618 	 -3.819366 
H 	 5.937697 	 -4.992183 	 2.897103 
H 	 6.866576 	 -6.116988 	 2.444365 
H 	 -4.454293 	 4.672674 	 0.538211 
H 	 -3.874237 	 6.124108 	 0.802202 
H 	 -6.042382 	 -4.776492 	 -1.564103 
H 	 -5.357411 	 -3.364611 	 -1.216665 
H 	 3.567211 	 -2.029583 	 6.666073 
H 	 4.890877 	 -2.259753 	 7.349707 
H 	 -5.753471 	 3.118823 	 6.250569 
H 	 -7.043987 	 2.756013 	 7.003380 
H 	 0.154010 	 6.406589 	 -6.233502 
H 	 -0.076160 	 6.836483 	 -4.815072 
H 	 -5.235938 	 3.881017 	 -4.985475 
H 	 -6.279000 	 4.117317 	 -3.904412 
H 	 -5.093484 	 6.475012 	 -5.087904 
H 	 -6.335931 	 6.140105 	 -5.711388 
H 	 1.373370 	 1.755098 	 -1.961068 
H 	 0.394148 	 2.853179 	 -2.535722 
H 	 1.900942 	 4.082278 	 1.799935 
H 	 1.728551 	 4.878384 	 3.148069 
H 	 5.947532 	 -2.288682 	 -2.972711 
H 	 5.373472 	 -3.378634 	 -1.941897 
H 	 -2.627036 	 6.306503 	 -3.154076 
H 	 -2.729406 	 5.551483 	 -4.516421 
H 	 -4.366298 	 0.411251 	 0.865656 
H 	 -3.105753 	 -0.307164 	 0.280529 
H 	 4.542287 	 1.683338 	 5.157198 
H 	 3.539212 	 2.327142 	 6.221269 
H 	 -5.983619 	 0.565978 	 -4.939050 
H 	 -6.004950 	 -0.234167 	 -3.632899 
H 	 -5.179418 	 -6.747887 	 6.791321 
H 	 -4.677943 	 -6.531608 	 -6.760362 
H 	 6.225652 	 3.338106 	 -6.851847 
H 	 -7.360717 	 3.761219 	 -6.196396 
H 	 4.121131 	 0.992215 	 -1.786076 
H 	 3.292138 	 -0.143453 	 -2.416125 
H 	 -0.461816 	 -4.006411 	 -5.875536 
H 	 -0.601269 	 -5.664248 	 -5.827281 
H 	 2.510213 	 -0.246700 	 0.818369 
H 	 2.357543 	 -0.088573 	 -0.614233 
H 	 2.904161 	 -3.309991 	 -0.492902 
H 	 2.927029 	 -4.754584 	 0.120446 
H 	 4.100028 	 0.366254 	 2.620123 
H 	 3.250350 	 -0.337592 	 3.609476 
H 	 -1.570909 	 5.343837 	 -0.879367 
H 	 -2.935356 	 4.701376 	 -1.210441 
H 	 1.189376 	 -2.358901 	 -1.907498 
H 	 2.325916 	 -2.449489 	 -2.950407 
H 	 1.590362 	 4.637030 	 -6.383402 
H 	 2.362325 	 4.930724 	 -5.014361 
H 	 -5.031236 	 6.030936 	 5.563163 
H 	 -6.476152 	 6.759245 	 5.785579 
H 	 5.810954 	 -1.595144 	 0.515189 
H 	 5.411721 	 -1.441408 	 -0.935335 
H 	 2.595637 	 5.675140 	 -2.598928 
H 	 3.219593 	 6.630133 	 -3.453303 
H 	 -0.230182 	 -4.210894 	 -3.133285 
H 	 -1.028888 	 -3.785093 	 -1.771534 
H 	 2.813893 	 -2.848701 	 -5.213226 
H 	 1.692623 	 -1.944326 	 -5.886563 
H 	 -0.652703 	 0.830505 	 -2.080972 
H 	 -1.274827 	 -0.585683 	 -1.733472 
H 	 -5.562911 	 -0.504952 	 5.364747 
H 	 -4.818855 	 0.793163 	 4.644326 
H 	 -3.900394 	 -2.162583 	 -7.072314 
H 	 -3.395299 	 -1.766464 	 -5.606937 
H 	 -4.358549 	 4.826564 	 -7.050514 
H 	 -3.353214 	 4.583880 	 6.715285 
H 	 -4.855914 	 -5.176487 	 -4.059008 
H 	 -5.097772 	 -5.053010 	 -5.573247 
H 	 -3.239674 	 3.282675 	 -4.672112 
H 	 -2.765059 	 3.578158 	 -6.086849 
H 	 -5.897157 	 -1.004236 	 -1.850142 
H 	 -4.750043 	 -1.097565 	 -0.793174 
H 	 -0.723279 	 2.588191 	 -0.020918 
H 	 -4.591199 	 2.293766 	 2.737737 
H 	 7.118442 	 -5.300732 	 -5.401684 
H 	 6.353554 	 -6.625527 	 -5.096107 
H 	 3.227942 	 -4.739500 	 -3.527562 
H 	 2.097552 	 -5.241093 	 -4.456695 
H 	 1.460351 	 1.593355 	 7.523250 
H 	 0.542475 	 1.902331 	 6.192942 
H 	 -2.827106 	 -6.443779 	 1.316668 
H 	 -2.994158 	 -6.299380 	 -0.156939 
H 	 -3.652779 	 2.902259 	 3.915542 
O 	 5.505903 	 -6.719041 	 -0.171813 
O 	 2.393512 	 4.470168 	 4.637090 
O 	 7.153340 	 7.349980 	 6.719311 
O 	 3.554229 	 -6.598107 	 -2.067091 
O 	 6.467734 	 6.433275 	 -5.244200 
O 	 4.476465 	 5.824428 	 -7.222125 
O 	 -6.070308 	 4.247329 	 -1.764098 
O 	 6.446235 	 -0.388834 	 7.612260 
O 	 -6.207255 	 5.529908 	 2.965848 
O 	 -7.135842 	 -2.900499 	 -6.280825 
O 	 1.104241 	 -5.832614 	 -0.741490 
O 	 -5.763229 	 0.378493 	 -6.590787 
O 	 -0.182514 	 -2.413320 	 -6.507266 
O 	 4.537359 	 0.010461 	 -5.109302 
O 	 -2.362895 	 -6.530604 	 3.484491 
O 	 4.467346 	 -6.397960 	 -7.090809 
O 	 0.384610 	 5.487486 	 7.007335 
O 	 6.984780 	 2.630539 	 3.798765 
O 	 -5.082046 	 1.818584 	 1.015145 
O 	 -1.830139 	 0.932442 	 2.274918 
O 	 -4.492300 	 -4.496347 	 1.372703 
O 	 -0.601302 	 -1.764848 	 2.286622 
O 	 4.774288 	 5.260585 	 -0.522910 
O 	 7.132402 	 -5.479295 	 -2.182259 
O 	 -0.676092 	 4.073920 	 -3.588799 
O 	 -1.640747 	 -5.880720 	 7.246619 
O 	 -4.393707 	 -3.361856 	 6.613433 
O 	 -1.761816 	 -4.207012 	 0.656325 
O 	 5.498284 	 -2.822255 	 4.345303 
O 	 4.571546 	 2.312241 	 2.169546 
O 	 1.430147 	 -7.062673 	 6.144770 
O 	 4.890055 	 2.799639 	 -6.026385 
O 	 3.652351 	 7.086063 	 1.999463 
O 	 5.812894 	 0.073819 	 4.875141 
O 	 5.908213 	 4.401505 	 -3.078099 
O 	 1.931414 	 4.990210 	 -0.952046 
O 	 6.926855 	 3.742162 	 0.674198 
O 	 -1.461190 	 5.054555 	 2.861085 
O 	 -1.637226 	 2.044530 	 -6.689876 
O 	 2.356460 	 -0.636271 	 5.680392 
O 	 -2.758546 	 -3.639775 	 4.373479 
O 	 1.538364 	 1.571638 	 -5.191551 
O 	 -7.118662 	 -2.051221 	 -3.680538 
O 	 3.996158 	 -6.820381 	 4.856409 
O 	 -2.067822 	 -0.175009 	 6.377350 
O 	 -0.371102 	 6.505255 	 0.332383 
O 	 7.246836 	 -4.798835 	 5.222189 
O 	 -6.642971 	 -2.055716 	 5.561470 
O 	 -3.738165 	 3.094547 	 -0.655392 
O 	 -6.955358 	 0.456338 	 -0.860466 
O 	 -5.922702 	 6.919190 	 -2.395898 
O 	 0.053006 	 -2.713220 	 5.060352 
O 	 2.248480 	 2.619442 	 0.687854 
O 	 -0.441647 	 -1.807609 	 -0.587295 
O 	 -1.887299 	 4.368774 	 5.363819 
O 	 1.966001 	 -4.811761 	 -7.086181 
O 	 6.092709 	 5.793297 	 3.024845 
O 	 0.509691 	 -4.929145 	 2.163480 
O 	 0.330827 	 -7.346341 	 3.558566 
O 	 -0.824621 	 1.715657 	 4.850536 
O 	 -3.122583 	 -2.757641 	 -4.066087 
O 	 -0.575013 	 -0.391398 	 -4.924674 
O 	 3.523741 	 -4.492665 	 3.042614 
O 	 -4.240599 	 -2.123907 	 2.803988 
O 	 -5.818969 	 -5.925707 	 3.429279 
O 	 -3.451081 	 1.816417 	 -3.594887 
O 	 -3.295403 	 -5.818717 	 -3.285334 
O 	 6.227800 	 1.296004 	 -3.516692 
O 	 6.262490 	 -5.427003 	 2.098421 
O 	 -4.228535 	 5.330975 	 1.197499 
O 	 -5.188541 	 -4.368909 	 -1.215397 
O 	 4.305434 	 -2.704843 	 6.737002 
O 	 -6.382886 	 2.395206 	 6.294914 
O 	 0.213598 	 7.174788 	 -5.649220 
O 	 -6.149638 	 4.156789 	 -4.887182 
O 	 -5.645137 	 6.852990 	 -5.797924 
O 	 0.460794 	 2.176315 	 -1.851462 
O 	 1.525450 	 4.927044 	 2.200950 
O 	 5.194185 	 -2.552121 	 -2.394795 
O 	 -2.642592 	 6.456019 	 -4.130787 
O 	 -4.014487 	 -0.511375 	 0.572280 
O 	 4.057657 	 2.487554 	 5.432484 
O 	 -5.944522 	 0.724404 	 -3.919524 
O 	 -4.901777 	 -6.006862 	 7.351475 
O 	 7.030986 	 3.896678 	 -7.039861 
O 	 3.247367 	 0.804491 	 -2.213721 
O 	 -0.173493 	 -4.893614 	 -5.448543 
O 	 1.772644 	 -0.182435 	 0.156533 
O 	 3.337889 	 -3.870247 	 0.162447 
O 	 3.426107 	 -0.347920 	 2.626193 
O 	 -2.243405 	 5.349852 	 -1.556291 
O 	 2.106313 	 -2.134632 	 -2.032772 
O 	 2.340986 	 4.375947 	 -5.807915 
O 	 -5.512807 	 6.841522 	 5.414325 
O 	 5.705630 	 -0.869332 	 -0.159866 
O 	 2.926190 	 5.697653 	 -3.522385 
O 	 -0.663690 	 -4.527329 	 -2.295756 
O 	 2.602037 	 -1.922723 	 -5.540936 
O 	 -1.326082 	 0.178081 	 -2.371024 
O 	 -4.753660 	 -0.180652 	 4.968038 
O 	 -3.668637 	 -1.384627 	 -6.489495 
O 	 -4.328642 	 4.676264 	 6.890151 
O 	 -5.549332 	 -4.903248 	 -4.718896 
O 	 -3.267004 	 3.984983 	 -5.344237 
O 	 -5.216966 	 -1.646011 	 -1.461305 
O 	 -1.361292 	 2.965185 	 0.619802 
O 	 6.245784 	 -5.622212 	 -5.144134 
O 	 2.593750 	 -4.453875 	 -4.227493 
O 	 1.509406 	 1.828050 	 6.531703 
O 	 -2.841555 	 -7.020513 	 0.464109 
O 	 -4.023453 	 2.101754 	 3.548141 
K 	 5.682785 	 4.872877 	 5.369953 
