333
conformation = 52
H 	 4.904421 	 -7.491883 	 -3.440830 
H 	 5.027818 	 -6.226723 	 -2.557108 
H 	 1.404804 	 4.451111 	 2.171487 
H 	 2.558647 	 3.873128 	 1.333233 
H 	 6.615615 	 7.342317 	 4.056678 
H 	 6.624583 	 -6.384839 	 2.940416 
H 	 2.106259 	 -6.338180 	 -5.019232 
H 	 3.621506 	 -6.698716 	 -4.847290 
H 	 5.763667 	 6.106746 	 7.212748 
H 	 5.277025 	 6.249383 	 5.720340 
H 	 3.212935 	 5.502091 	 4.746226 
H 	 3.840596 	 6.988819 	 4.389452 
H 	 -5.761174 	 3.895656 	 -4.603771 
H 	 -6.613259 	 5.174751 	 -5.095510 
H 	 5.445531 	 0.018686 	 5.083973 
H 	 6.916903 	 -0.130880 	 4.624583 
H 	 -6.054797 	 5.584278 	 -0.989320 
H 	 -6.362746 	 6.039861 	 0.539542 
H 	 6.875673 	 -1.851999 	 4.700972 
H 	 -6.838603 	 -2.748007 	 4.812103 
H 	 0.044429 	 -6.765813 	 -3.760934 
H 	 -0.030498 	 -5.387160 	 -4.665125 
H 	 -5.435443 	 -0.035741 	 4.765139 
H 	 -6.250332 	 1.228467 	 4.276118 
H 	 -0.886763 	 -2.181832 	 4.090513 
H 	 -0.987552 	 -1.513893 	 5.542413 
H 	 3.542965 	 -0.415038 	 6.642573 
H 	 4.675384 	 0.593274 	 7.104173 
H 	 -2.040504 	 -6.500764 	 0.096066 
H 	 -3.020395 	 -5.303548 	 0.180194 
H 	 3.078485 	 -5.698681 	 4.930113 
H 	 4.648328 	 -5.742698 	 5.045269 
H 	 0.340033 	 6.336653 	 3.300527 
H 	 -0.946212 	 5.428390 	 3.253483 
H 	 7.357458 	 3.071633 	 0.925775 
H 	 6.547469 	 1.902913 	 0.596710 
H 	 -5.078513 	 2.493334 	 -2.780274 
H 	 -6.496160 	 1.843534 	 -2.497759 
H 	 -2.927378 	 1.487387 	 -0.605904 
H 	 -1.765247 	 1.693928 	 -1.668106 
H 	 -5.491910 	 -4.427527 	 -2.656434 
H 	 -5.548350 	 -3.731856 	 -1.276325 
H 	 -1.475757 	 -0.726622 	 -0.893271 
H 	 -1.770996 	 -2.254327 	 -1.158579 
H 	 4.719438 	 4.609988 	 -3.199226 
H 	 3.413353 	 5.310122 	 -3.678663 
H 	 6.149885 	 -5.192925 	 -6.121589 
H 	 6.067670 	 -5.771006 	 -4.602527 
H 	 -1.653732 	 3.805656 	 7.089260 
H 	 -1.620828 	 4.580003 	 -6.415423 
H 	 -2.285819 	 -6.654141 	 4.448979 
H 	 -3.179106 	 -5.623183 	 3.648958 
H 	 -4.139608 	 -3.207363 	 2.620136 
H 	 -5.097528 	 -4.029642 	 3.599968 
H 	 -1.673352 	 -4.528811 	 -2.053796 
H 	 -3.252321 	 -4.245692 	 -2.214960 
H 	 4.120083 	 -3.063636 	 0.485792 
H 	 4.544409 	 -2.880067 	 1.970371 
H 	 4.883721 	 2.386523 	 -1.856264 
H 	 4.317727 	 3.085044 	 -0.692628 
H 	 1.042777 	 -6.107494 	 3.439773 
H 	 2.004912 	 -6.848579 	 2.454806 
H 	 4.066257 	 2.080194 	 5.940849 
H 	 3.704340 	 3.552101 	 5.850127 
H 	 3.059982 	 7.105635 	 -0.355007 
H 	 2.223122 	 6.362297 	 -1.440235 
H 	 4.768191 	 -0.619461 	 1.047077 
H 	 5.485700 	 -0.210084 	 2.371803 
H 	 6.479706 	 4.360776 	 -6.081976 
H 	 5.121709 	 5.030903 	 -5.713342 
H 	 1.541847 	 4.302236 	 -3.662364 
H 	 0.709253 	 5.735113 	 -3.865549 
H 	 6.979716 	 3.670487 	 -1.928113 
H 	 6.980264 	 4.021733 	 -3.462408 
H 	 -2.719906 	 5.592319 	 -0.830127 
H 	 -1.697797 	 4.516396 	 -1.197459 
H 	 -1.762370 	 1.518121 	 5.430157 
H 	 -2.431040 	 1.881030 	 4.076427 
H 	 1.394132 	 -0.065728 	 2.995936 
H 	 1.040175 	 -1.382022 	 2.227019 
H 	 -3.310268 	 -2.936245 	 0.516133 
H 	 -2.194878 	 -3.233111 	 1.517384 
H 	 1.309492 	 2.474865 	 6.304702 
H 	 2.051961 	 1.098772 	 6.582460 
H 	 7.234885 	 -2.639252 	 7.073430 
H 	 -7.086329 	 -2.826713 	 -6.453987 
H 	 3.978460 	 -6.410536 	 2.557881 
H 	 3.675374 	 -5.694863 	 1.183403 
H 	 -3.034957 	 -0.363189 	 3.759853 
H 	 -3.588669 	 -0.011998 	 2.329557 
H 	 -0.579003 	 6.001513 	 -2.317798 
H 	 -1.655908 	 7.141401 	 -2.854090 
H 	 6.284454 	 -4.260091 	 1.290957 
H 	 7.544384 	 -4.933323 	 1.651461 
H 	 -6.502636 	 -2.633384 	 2.484017 
H 	 7.073392 	 -2.201383 	 1.855001 
H 	 -2.710790 	 3.071906 	 -3.301152 
H 	 -4.232475 	 2.762650 	 -4.804881 
H 	 6.616982 	 0.465179 	 -3.787833 
H 	 7.458234 	 1.295022 	 -4.808744 
H 	 -5.674113 	 -7.193774 	 -5.802736 
H 	 -7.162636 	 -7.025413 	 -5.897891 
H 	 0.229205 	 -3.261752 	 1.790103 
H 	 -0.288488 	 -2.302264 	 0.707759 
H 	 1.430958 	 1.646676 	 -2.804116 
H 	 2.466253 	 2.611839 	 -2.204835 
H 	 -0.115749 	 -1.223896 	 -3.387940 
H 	 -1.160557 	 -2.410407 	 -3.398004 
H 	 -1.754371 	 3.593902 	 2.013278 
H 	 -2.208687 	 4.822936 	 1.341943 
H 	 1.770220 	 -3.866561 	 4.124832 
H 	 0.891183 	 -4.778781 	 5.089928 
H 	 4.874380 	 6.573924 	 -0.836931 
H 	 6.420893 	 5.982452 	 -0.532372 
H 	 0.015773 	 -5.641018 	 -0.656581 
H 	 0.316019 	 -4.904447 	 -1.973381 
H 	 -0.074017 	 6.776830 	 -0.039712 
H 	 0.150846 	 -7.076239 	 1.125573 
H 	 -1.391302 	 1.541400 	 0.654919 
H 	 -1.637094 	 1.329202 	 2.170608 
H 	 -4.020748 	 -2.072735 	 -6.504188 
H 	 -4.214345 	 -3.234658 	 -7.324837 
H 	 -0.266469 	 0.358542 	 6.678801 
H 	 -1.305467 	 -0.270447 	 -7.292487 
H 	 2.966683 	 -4.146341 	 -1.079041 
H 	 2.018398 	 -4.341954 	 0.052955 
H 	 -5.173154 	 -1.322541 	 0.309911 
H 	 -4.855636 	 -1.325059 	 -1.294072 
H 	 -5.714845 	 -5.746606 	 -0.439857 
H 	 -5.770786 	 -6.566762 	 0.867693 
H 	 -4.774891 	 1.555373 	 -6.842774 
H 	 -3.320902 	 1.110887 	 -6.557261 
H 	 -3.166453 	 -5.251552 	 -6.087425 
H 	 -3.453725 	 -6.674821 	 -6.902424 
H 	 6.573471 	 1.440174 	 -7.047074 
H 	 5.499684 	 2.622913 	 -6.919219 
H 	 5.471984 	 -4.798338 	 -0.408858 
H 	 6.662425 	 -5.688282 	 -0.735779 
H 	 -4.279764 	 4.752527 	 -2.792709 
H 	 -4.367806 	 6.209625 	 -2.727098 
H 	 -6.476227 	 -4.589478 	 -4.857891 
H 	 -5.688170 	 -3.255586 	 -4.575157 
H 	 3.147676 	 -1.770257 	 3.175236 
H 	 4.377301 	 -2.281228 	 4.002987 
H 	 -5.852209 	 2.926534 	 3.157625 
H 	 7.598281 	 3.015126 	 3.698887 
H 	 -0.441204 	 6.644976 	 5.364952 
H 	 -0.934109 	 7.146145 	 6.766403 
H 	 -5.713901 	 4.254695 	 6.484140 
H 	 -6.687151 	 4.406794 	 -7.208671 
H 	 -5.630368 	 6.956730 	 6.636201 
H 	 -7.108127 	 6.854154 	 6.064002 
H 	 0.951545 	 2.009172 	 -5.464089 
H 	 -0.300429 	 2.765946 	 -6.052293 
H 	 1.042888 	 4.358556 	 -1.587271 
H 	 1.181082 	 4.833807 	 -0.109040 
H 	 5.446354 	 -2.552003 	 -5.987807 
H 	 4.494439 	 -3.186649 	 -5.084572 
H 	 -3.144440 	 6.090166 	 -6.708855 
H 	 -3.488966 	 6.109831 	 6.697431 
H 	 -4.925491 	 0.471389 	 -2.517374 
H 	 -3.459327 	 -0.100885 	 -2.537645 
H 	 4.159339 	 1.630057 	 1.778835 
H 	 2.897227 	 2.120662 	 2.487126 
H 	 -6.372336 	 0.956952 	 6.533646 
H 	 -6.647029 	 -0.162968 	 -7.243781 
H 	 -5.244167 	 -6.332145 	 3.190178 
H 	 -5.992270 	 -6.595481 	 4.562559 
H 	 5.857190 	 3.736514 	 5.087868 
H 	 7.346205 	 4.458183 	 5.117689 
H 	 3.671106 	 1.244808 	 -5.872414 
H 	 2.700837 	 0.089241 	 -5.668724 
H 	 -0.847408 	 -3.754580 	 5.817958 
H 	 -1.158636 	 -5.256708 	 5.852718 
H 	 1.743640 	 -0.364487 	 -2.102655 
H 	 2.178613 	 0.129817 	 -3.625460 
H 	 2.389156 	 -2.790086 	 -3.749637 
H 	 2.569683 	 -4.256874 	 -3.781200 
H 	 3.168765 	 0.649427 	 -0.734589 
H 	 2.168803 	 -0.377051 	 0.060866 
H 	 -2.070395 	 5.728609 	 -4.225885 
H 	 -3.081194 	 4.536707 	 -4.529059 
H 	 0.518119 	 -1.662764 	 -5.027347 
H 	 1.606878 	 -2.505662 	 -5.752826 
H 	 1.250269 	 4.862288 	 5.325438 
H 	 2.002524 	 5.193133 	 6.629292 
H 	 -5.537945 	 6.231928 	 2.645494 
H 	 -6.629603 	 7.131582 	 2.289621 
H 	 4.968583 	 -1.401831 	 -2.710811 
H 	 5.053260 	 -1.178816 	 -4.238322 
H 	 1.967431 	 5.334548 	 -6.205335 
H 	 2.570245 	 6.824178 	 -6.463285 
H 	 -1.265890 	 -4.364768 	 -6.711780 
H 	 -1.359023 	 -3.434041 	 -5.587588 
H 	 2.201731 	 -2.591388 	 6.591323 
H 	 1.292922 	 -1.733298 	 5.688180 
H 	 -1.136860 	 0.882043 	 -5.495191 
H 	 -1.540898 	 -0.534973 	 -5.002052 
H 	 -6.144045 	 -0.518975 	 1.975115 
H 	 -5.505696 	 0.808813 	 1.257651 
H 	 -4.318505 	 -2.054966 	 4.624835 
H 	 -3.932767 	 -1.637835 	 6.098273 
H 	 -4.817577 	 5.284709 	 4.603365 
H 	 -3.992355 	 4.686906 	 3.367709 
H 	 -5.214717 	 -5.263368 	 -7.272934 
H 	 -5.747774 	 -4.737394 	 6.183059 
H 	 -3.937101 	 3.292714 	 6.988833 
H 	 -3.429530 	 3.431160 	 5.607528 
H 	 -6.398563 	 -1.084580 	 -4.728793 
H 	 -5.064780 	 -1.376789 	 -4.055327 
H 	 -1.136675 	 3.204520 	 -3.728841 
H 	 -5.089838 	 2.308895 	 -0.495375 
H 	 6.605911 	 -4.957997 	 6.390291 
H 	 6.109729 	 -6.492293 	 6.423115 
H 	 2.391755 	 -5.319385 	 -6.953933 
H 	 1.223477 	 -4.632086 	 7.096246 
H 	 0.353900 	 2.049358 	 3.936983 
H 	 0.394471 	 2.036857 	 2.345887 
H 	 -3.343005 	 -6.510850 	 -1.926190 
H 	 -3.255209 	 -6.030577 	 -3.524513 
H 	 -4.647776 	 3.243619 	 0.714830 
O 	 5.005206 	 -6.509949 	 -3.489717 
O 	 1.974194 	 4.699046 	 1.443733 
O 	 6.790934 	 -7.339371 	 3.100406 
O 	 2.917077 	 -6.535591 	 -5.547446 
O 	 5.868744 	 6.688186 	 6.412489 
O 	 3.955375 	 6.008523 	 4.366418 
O 	 -6.669897 	 4.187680 	 -5.006522 
O 	 5.970887 	 -0.351234 	 4.332978 
O 	 -6.755339 	 5.652220 	 -0.335973 
O 	 7.185105 	 -2.626222 	 5.196474 
O 	 0.515309 	 -5.924142 	 -4.026874 
O 	 -6.264476 	 0.478926 	 4.935821 
O 	 -0.552536 	 -2.268993 	 5.019910 
O 	 4.059202 	 0.384509 	 6.343889 
O 	 -3.003101 	 -6.248156 	 -0.051404 
O 	 3.888705 	 -6.146221 	 4.530821 
O 	 -0.092388 	 5.547063 	 3.780760 
O 	 6.555145 	 2.864319 	 0.410030 
O 	 -5.574351 	 1.893353 	 -2.103264 
O 	 -2.087134 	 1.073347 	 -0.942179 
O 	 -5.146254 	 -4.490674 	 -1.729777 
O 	 -1.116107 	 -1.622810 	 -0.804256 
O 	 4.374005 	 5.401121 	 -3.757847 
O 	 6.684483 	 -5.439027 	 -5.351052 
O 	 -1.041021 	 4.177163 	 -7.123046 
O 	 -2.257644 	 -5.815999 	 3.925713 
O 	 -4.865422 	 -3.170074 	 3.258867 
O 	 -2.364962 	 -4.193205 	 -2.647883 
O 	 4.934213 	 -2.861575 	 1.021633 
O 	 3.997151 	 2.517467 	 -1.411064 
O 	 1.089380 	 -6.910102 	 2.837443 
O 	 4.382114 	 2.938806 	 5.606225 
O 	 2.880073 	 7.078555 	 -1.318017 
O 	 5.224088 	 0.151632 	 1.466855 
O 	 5.593134 	 4.649002 	 -6.442476 
O 	 1.445409 	 5.175331 	 -4.227644 
O 	 6.448218 	 3.931665 	 -2.657402 
O 	 -1.780605 	 5.341500 	 -0.649387 
O 	 -2.244906 	 2.233215 	 4.937131 
O 	 1.730110 	 -0.716224 	 2.359366 
O 	 -3.032662 	 -3.640210 	 1.184924 
O 	 1.120724 	 1.497810 	 6.430134 
O 	 7.274514 	 -2.152364 	 -6.966792 
O 	 3.566254 	 -6.533606 	 1.673885 
O 	 -2.777563 	 0.041435 	 2.934540 
O 	 -0.836417 	 6.602733 	 -3.099304 
O 	 6.727947 	 -4.612649 	 2.080212 
O 	 -7.037235 	 -1.858766 	 2.301275 
O 	 -4.307167 	 3.222575 	 -3.936040 
O 	 7.510755 	 0.601418 	 -4.102982 
O 	 -6.490093 	 7.171694 	 -5.792412 
O 	 -0.380459 	 -2.563657 	 1.674467 
O 	 1.613134 	 2.661568 	 -2.646986 
O 	 -0.821823 	 -1.666846 	 -3.881350 
O 	 -2.278115 	 4.396563 	 2.164973 
O 	 1.608168 	 -4.801756 	 4.453102 
O 	 5.496361 	 6.087093 	 -0.182505 
O 	 -0.170417 	 -4.806285 	 -1.133014 
O 	 -0.177061 	 -7.163265 	 0.210690 
O 	 -1.183529 	 1.924704 	 1.576057 
O 	 -3.536652 	 -2.505972 	 -7.268978 
O 	 -1.099097 	 -0.219134 	 6.647024 
O 	 2.974364 	 -4.463768 	 -0.137289 
O 	 -4.736294 	 -1.837470 	 -0.446553 
O 	 -6.267363 	 -5.932492 	 0.377464 
O 	 -3.860499 	 1.866000 	 -6.869838 
O 	 -3.785398 	 -5.754818 	 -6.649116 
O 	 5.653368 	 1.690384 	 -6.726461 
O 	 5.833608 	 -5.340131 	 -1.108235 
O 	 -4.544755 	 5.432466 	 -2.159044 
O 	 -5.600293 	 -4.274440 	 -4.586902 
O 	 3.698662 	 -2.569872 	 3.385246 
O 	 -6.714362 	 2.475751 	 3.056810 
O 	 -0.435651 	 -7.503596 	 5.960598 
O 	 -6.657601 	 4.354158 	 6.741533 
O 	 -6.159830 	 6.913628 	 5.813883 
O 	 -0.018048 	 2.209614 	 -5.303071 
O 	 1.037110 	 5.157981 	 -1.034560 
O 	 4.521649 	 -2.406431 	 -5.633427 
O 	 -3.232103 	 6.661345 	 7.432966 
O 	 -4.376205 	 -0.312762 	 -2.758833 
O 	 3.616920 	 2.443201 	 1.864346 
O 	 -6.579755 	 0.805858 	 -7.363609 
O 	 -5.395543 	 -5.979484 	 4.077923 
O 	 6.622257 	 4.054333 	 4.545310 
O 	 2.873860 	 1.024737 	 -5.446257 
O 	 -0.550601 	 -4.609855 	 6.318087 
O 	 1.450229 	 -0.033681 	 -2.988608 
O 	 2.687615 	 -3.513833 	 -3.183605 
O 	 2.820852 	 -0.271262 	 -0.700302 
O 	 -2.707350 	 5.381562 	 -4.900376 
O 	 1.478869 	 -1.702441 	 -5.232900 
O 	 1.978795 	 4.546335 	 5.897041 
O 	 -5.762067 	 6.838578 	 1.928951 
O 	 5.240999 	 -0.777746 	 -3.379216 
O 	 2.336025 	 5.921926 	 -6.843470 
O 	 -1.326526 	 -4.369888 	 -5.736488 
O 	 2.175902 	 -1.715191 	 6.119941 
O 	 -1.774662 	 0.152646 	 -5.679168 
O 	 -5.330994 	 -0.107599 	 1.649542 
O 	 -4.008894 	 -1.276652 	 5.153712 
O 	 -4.872816 	 4.836385 	 3.729291 
O 	 -6.013083 	 -4.850467 	 7.125548 
O 	 -3.815031 	 3.986920 	 6.329345 
O 	 -5.578538 	 -1.614624 	 -4.846939 
O 	 -1.750385 	 3.156086 	 -2.949661 
O 	 5.815260 	 -5.538167 	 6.424437 
O 	 2.129555 	 -4.464832 	 -7.390457 
O 	 0.971499 	 1.962968 	 3.208798 
O 	 -3.231835 	 -6.793615 	 -2.911267 
O 	 -4.686805 	 2.287638 	 0.419140 
K 	 5.143290 	 4.956381 	 2.061933 
