333
conformation = 76
H 	 5.043807 	 -7.417104 	 -3.367651 
H 	 5.398602 	 -6.187533 	 -2.615836 
H 	 1.488720 	 4.841966 	 2.310023 
H 	 2.453498 	 3.919397 	 1.441030 
H 	 6.512755 	 -7.327549 	 3.833573 
H 	 6.647107 	 -6.260770 	 2.756589 
H 	 1.971587 	 -6.465947 	 -5.289469 
H 	 3.462568 	 -6.399575 	 -4.846928 
H 	 5.850675 	 6.078060 	 7.114919 
H 	 5.202500 	 6.624530 	 5.828528 
H 	 3.380261 	 5.673627 	 4.950892 
H 	 3.786528 	 7.094512 	 4.411004 
H 	 -5.740726 	 4.006964 	 -4.728270 
H 	 -6.602525 	 5.224430 	 -4.991303 
H 	 5.421578 	 0.263798 	 4.854271 
H 	 6.925437 	 0.112705 	 4.348534 
H 	 -6.029128 	 5.498728 	 -1.109655 
H 	 -6.199766 	 5.842966 	 0.449792 
H 	 6.584512 	 -1.875644 	 4.864613 
H 	 -6.911477 	 -2.536673 	 4.488924 
H 	 0.269517 	 -6.789626 	 -3.787879 
H 	 -0.094131 	 -5.581607 	 -4.617731 
H 	 -5.438637 	 -0.052669 	 4.808138 
H 	 -6.226106 	 1.251257 	 4.093394 
H 	 -0.861180 	 -2.122725 	 4.103115 
H 	 -0.852952 	 -1.446286 	 5.518717 
H 	 3.789037 	 -0.325377 	 6.119004 
H 	 4.562156 	 0.634901 	 7.191047 
H 	 -2.167379 	 -6.374504 	 0.196894 
H 	 -3.003684 	 -5.155897 	 0.093668 
H 	 3.115812 	 -5.607816 	 4.743315 
H 	 4.619820 	 -5.819830 	 5.243404 
H 	 0.444640 	 6.381940 	 3.398825 
H 	 -0.714761 	 5.442143 	 3.207374 
H 	 7.561092 	 3.246289 	 0.770739 
H 	 6.500388 	 2.123852 	 0.827865 
H 	 -4.994891 	 2.525591 	 -2.792909 
H 	 -6.392887 	 1.865196 	 -2.490819 
H 	 -2.734378 	 1.572596 	 -0.593880 
H 	 -1.582855 	 1.848647 	 -1.573978 
H 	 -5.436351 	 -4.388968 	 -2.632704 
H 	 -5.474767 	 -3.593672 	 -1.303506 
H 	 -1.278411 	 -0.580839 	 -0.609656 
H 	 -1.776391 	 -1.954059 	 -1.231022 
H 	 4.961183 	 4.942611 	 -3.156033 
H 	 3.539680 	 5.476624 	 -3.642458 
H 	 6.336020 	 -4.803688 	 -5.968002 
H 	 6.115616 	 -5.761150 	 -4.707183 
H 	 -1.679544 	 3.768376 	 7.386028 
H 	 -1.259337 	 4.648989 	 -6.420250 
H 	 -1.995475 	 -6.467540 	 4.515206 
H 	 -3.168201 	 -5.597090 	 4.101287 
H 	 -4.155682 	 -3.461335 	 2.521702 
H 	 -5.003674 	 -3.979868 	 3.702878 
H 	 -1.597951 	 -4.557299 	 -2.234966 
H 	 -3.124461 	 -4.104257 	 -2.061424 
H 	 4.217789 	 -3.308537 	 0.608742 
H 	 4.714527 	 -2.749498 	 1.905035 
H 	 4.875322 	 2.620466 	 -2.107822 
H 	 4.483951 	 3.033896 	 -0.679795 
H 	 1.234013 	 -6.064954 	 3.325627 
H 	 2.128725 	 -6.731818 	 2.360511 
H 	 4.042946 	 2.206961 	 5.854321 
H 	 3.637744 	 3.707216 	 5.670460 
H 	 3.031620 	 -7.417091 	 -0.417036 
H 	 2.216138 	 6.419154 	 -1.272364 
H 	 5.028000 	 -0.589624 	 0.999451 
H 	 5.610291 	 0.099752 	 2.303443 
H 	 6.588582 	 4.603804 	 -5.982493 
H 	 5.211313 	 5.127541 	 -5.659846 
H 	 1.357649 	 4.389965 	 -3.884281 
H 	 1.002187 	 5.836631 	 -3.722772 
H 	 7.030319 	 4.185029 	 -1.824727 
H 	 7.195926 	 3.789602 	 -3.399689 
H 	 -2.577306 	 5.875336 	 -0.975408 
H 	 -1.739539 	 4.748585 	 -1.386998 
H 	 -1.719476 	 1.545434 	 5.288642 
H 	 -2.523923 	 1.923317 	 4.065809 
H 	 1.310134 	 -0.078704 	 2.932078 
H 	 1.134157 	 -1.481764 	 2.211315 
H 	 -3.401667 	 -3.068783 	 0.622606 
H 	 -2.044969 	 -3.032601 	 1.367032 
H 	 1.348694 	 2.476542 	 6.232228 
H 	 2.134261 	 1.225992 	 6.309084 
H 	 7.316779 	 -2.585145 	 7.057717 
H 	 -6.726450 	 -2.522901 	 -6.607896 
H 	 4.000131 	 -6.279999 	 2.691343 
H 	 3.934817 	 -5.605056 	 1.236830 
H 	 -3.104381 	 -0.320453 	 3.711939 
H 	 -3.636209 	 0.106280 	 2.338513 
H 	 -0.604011 	 6.178381 	 -2.402777 
H 	 -1.496384 	 7.359978 	 -2.951239 
H 	 6.323203 	 -4.229354 	 1.420377 
H 	 -7.172682 	 -4.862736 	 1.781210 
H 	 -6.492414 	 -2.556279 	 2.539270 
H 	 7.185489 	 -2.094610 	 1.749975 
H 	 -2.569953 	 3.267552 	 -3.342493 
H 	 -4.035274 	 2.551741 	 -4.479217 
H 	 6.750067 	 0.706333 	 -3.653626 
H 	 7.591555 	 1.288557 	 -4.869528 
H 	 -5.523960 	 -7.288165 	 -5.580140 
H 	 -6.988491 	 -6.804116 	 -5.597589 
H 	 0.300944 	 -3.324067 	 1.829391 
H 	 -0.480658 	 -2.337989 	 0.688828 
H 	 1.529365 	 1.847735 	 -2.779810 
H 	 2.570709 	 2.904339 	 -2.693514 
H 	 -0.136645 	 -1.128185 	 -3.153101 
H 	 -1.003838 	 -2.479535 	 -3.461001 
H 	 -1.748260 	 3.554227 	 2.162334 
H 	 -2.269000 	 4.781267 	 1.242493 
H 	 2.014892 	 -3.838968 	 4.095457 
H 	 1.105276 	 -4.508586 	 5.195888 
H 	 4.916968 	 6.382262 	 -0.934701 
H 	 6.415751 	 6.445503 	 -0.466357 
H 	 -0.178934 	 -5.544291 	 -0.562217 
H 	 0.374084 	 -5.069392 	 -1.911693 
H 	 0.467014 	 7.296051 	 -0.298698 
H 	 0.332335 	 -6.943448 	 1.141762 
H 	 -1.077947 	 1.795478 	 0.667604 
H 	 -1.570774 	 1.258908 	 2.019744 
H 	 -3.894005 	 -1.736507 	 -6.584505 
H 	 -4.059365 	 -3.084059 	 -7.392578 
H 	 -0.107504 	 0.254484 	 6.707556 
H 	 -1.299372 	 -0.107822 	 -7.328632 
H 	 3.046191 	 -4.042724 	 -1.066867 
H 	 2.028419 	 -4.404977 	 0.094171 
H 	 -4.725655 	 -1.031669 	 0.282051 
H 	 -4.453743 	 -1.175838 	 -1.210764 
H 	 -5.723034 	 -5.359200 	 -0.195399 
H 	 -5.657175 	 -6.766809 	 0.402712 
H 	 -4.667095 	 1.437201 	 -6.887946 
H 	 -3.231755 	 1.346947 	 -6.231792 
H 	 -3.186133 	 -5.187724 	 -5.998910 
H 	 -3.223007 	 -6.497072 	 -6.973638 
H 	 6.531884 	 1.567339 	 -7.088172 
H 	 5.482249 	 2.832704 	 -6.938690 
H 	 5.402366 	 -4.830568 	 -0.412556 
H 	 6.826324 	 -5.439219 	 -0.571251 
H 	 -4.155302 	 4.819013 	 -2.875160 
H 	 -4.179586 	 6.412274 	 -2.612365 
H 	 -6.391540 	 -4.578310 	 -4.853754 
H 	 -5.478354 	 -3.278209 	 -4.549817 
H 	 3.257441 	 -1.626716 	 3.164120 
H 	 4.043420 	 -2.214775 	 4.249940 
H 	 -5.793670 	 3.209215 	 3.162117 
H 	 -7.192099 	 3.096725 	 3.596343 
H 	 -0.367095 	 6.908145 	 5.194776 
H 	 -1.081848 	 7.088774 	 6.567559 
H 	 -5.738519 	 4.315316 	 6.302524 
H 	 -6.302517 	 4.329665 	 -7.150955 
H 	 -5.754994 	 -7.344301 	 6.549244 
H 	 -7.012537 	 6.802683 	 6.087936 
H 	 1.009956 	 2.024829 	 -5.423804 
H 	 -0.042071 	 3.022604 	 -6.068414 
H 	 1.499514 	 4.386079 	 -1.388140 
H 	 1.199800 	 5.208157 	 -0.098181 
H 	 5.494948 	 -2.444754 	 -5.883315 
H 	 4.247657 	 -3.161367 	 -5.273291 
H 	 -2.948509 	 6.064760 	 -6.766716 
H 	 -3.532741 	 6.159963 	 6.704044 
H 	 -4.679569 	 0.608977 	 -2.562469 
H 	 -3.239658 	 0.044868 	 -2.602438 
H 	 4.334608 	 1.634990 	 1.610838 
H 	 2.979267 	 2.113124 	 2.236020 
H 	 -6.428098 	 0.991657 	 6.565412 
H 	 -6.525692 	 -0.112260 	 -7.303178 
H 	 -5.295383 	 -6.077644 	 3.100196 
H 	 -5.713194 	 -6.692037 	 4.458612 
H 	 6.203668 	 3.527878 	 5.019843 
H 	 7.168893 	 4.681256 	 5.208918 
H 	 3.853807 	 1.261729 	 -5.967898 
H 	 2.615638 	 0.312655 	 -5.802644 
H 	 -0.592026 	 -3.645252 	 5.857090 
H 	 -0.768611 	 -5.224985 	 5.988351 
H 	 2.135610 	 -0.067959 	 -2.096956 
H 	 2.199894 	 -0.211484 	 -3.578496 
H 	 2.428628 	 -2.420014 	 -3.510410 
H 	 2.506397 	 -3.930803 	 -3.973371 
H 	 3.159510 	 0.712417 	 -0.655949 
H 	 2.559424 	 -0.313263 	 0.245396 
H 	 -2.121505 	 5.566758 	 -4.170402 
H 	 -3.296965 	 4.750778 	 -4.782773 
H 	 0.695234 	 -1.451598 	 -4.869824 
H 	 1.654908 	 -2.376289 	 -5.786237 
H 	 1.237830 	 4.751187 	 5.471678 
H 	 2.095750 	 5.255874 	 6.704732 
H 	 -5.085413 	 6.159752 	 2.453255 
H 	 -6.564701 	 6.879896 	 2.257148 
H 	 5.012733 	 -1.114186 	 -2.480247 
H 	 5.091858 	 -1.393285 	 -4.068898 
H 	 2.017193 	 5.521263 	 -6.046255 
H 	 2.799583 	 6.798266 	 -6.404330 
H 	 -1.295546 	 -4.429112 	 -6.825900 
H 	 -1.253769 	 -3.297718 	 -5.803728 
H 	 2.450542 	 -2.529706 	 6.490778 
H 	 1.472873 	 -1.662440 	 5.687675 
H 	 -0.966392 	 0.853176 	 -5.499486 
H 	 -1.733282 	 -0.503040 	 -4.998297 
H 	 -5.943256 	 -0.549928 	 2.113096 
H 	 -5.474977 	 0.916173 	 1.464135 
H 	 -4.098376 	 -2.059641 	 4.746478 
H 	 -3.558132 	 -1.361423 	 6.028034 
H 	 -4.775252 	 5.512331 	 4.524021 
H 	 -3.795027 	 4.840503 	 3.588734 
H 	 -5.142226 	 -5.158752 	 -7.244097 
H 	 -5.733663 	 -4.815383 	 6.259876 
H 	 -3.742435 	 3.407513 	 7.203380 
H 	 -3.180596 	 3.511748 	 5.751148 
H 	 -6.179226 	 -0.947867 	 -4.698722 
H 	 -4.689694 	 -1.145168 	 -4.350585 
H 	 -1.079601 	 2.711250 	 -3.614016 
H 	 -5.102043 	 2.219613 	 -0.386253 
H 	 6.848283 	 -5.092680 	 6.352134 
H 	 6.005076 	 -6.349767 	 6.733786 
H 	 2.686379 	 -5.174123 	 -7.009240 
H 	 1.278285 	 -4.583623 	 7.445340 
H 	 0.459644 	 2.407234 	 3.937959 
H 	 0.530572 	 2.040804 	 2.431870 
H 	 -3.097053 	 -6.532383 	 -1.994860 
H 	 -2.888376 	 -5.863902 	 -3.213392 
H 	 -4.853908 	 3.354841 	 0.633273 
O 	 5.075928 	 -6.438954 	 -3.531741 
O 	 2.110746 	 4.795752 	 1.539707 
O 	 6.890821 	 -7.217461 	 2.946508 
O 	 2.897045 	 -6.469222 	 -5.625506 
O 	 5.943431 	 6.781604 	 6.426935 
O 	 4.041175 	 6.130374 	 4.365196 
O 	 -6.649163 	 4.248534 	 -4.974292 
O 	 6.047626 	 -0.293261 	 4.339254 
O 	 -6.670227 	 5.691630 	 -0.358821 
O 	 7.270124 	 -2.529124 	 5.162230 
O 	 0.591918 	 -5.904308 	 -4.016764 
O 	 -6.182739 	 0.581120 	 4.863225 
O 	 -0.409757 	 -2.129966 	 4.972418 
O 	 4.172137 	 0.548877 	 6.290329 
O 	 -2.994760 	 -6.107740 	 -0.205061 
O 	 3.982378 	 -5.993952 	 4.520748 
O 	 0.034971 	 5.596328 	 3.808415 
O 	 6.697835 	 2.972746 	 0.361347 
O 	 -5.525185 	 2.024365 	 -2.049884 
O 	 -1.907319 	 1.192301 	 -0.923206 
O 	 -5.118584 	 -4.448939 	 -1.675777 
O 	 -1.024296 	 -1.539164 	 -0.700079 
O 	 4.516888 	 5.526955 	 -3.780031 
O 	 6.782728 	 -5.389156 	 -5.307619 
O 	 -0.885302 	 4.231908 	 -7.233787 
O 	 -2.226532 	 -5.762617 	 3.911720 
O 	 -4.753319 	 -3.100799 	 3.255972 
O 	 -2.338974 	 -4.017426 	 -2.646311 
O 	 4.966557 	 -2.810476 	 0.980152 
O 	 4.126183 	 2.619442 	 -1.502677 
O 	 1.209960 	 -6.867120 	 2.753798 
O 	 4.430892 	 3.088856 	 5.618529 
O 	 2.886802 	 7.144370 	 -1.310713 
O 	 5.252658 	 0.255324 	 1.423215 
O 	 5.782981 	 4.801543 	 -6.446566 
O 	 1.566325 	 5.255119 	 -4.205674 
O 	 6.536758 	 3.986718 	 -2.677812 
O 	 -1.699277 	 5.487697 	 -0.746519 
O 	 -2.171240 	 2.322980 	 4.934243 
O 	 1.776642 	 -0.726378 	 2.346827 
O 	 -2.849296 	 -3.568535 	 1.254900 
O 	 1.260321 	 1.526250 	 6.417050 
O 	 7.321146 	 -2.189224 	 -6.936224 
O 	 3.696019 	 -6.393493 	 1.757570 
O 	 -2.829176 	 0.184912 	 2.868925 
O 	 -0.766086 	 6.716257 	 -3.157192 
O 	 6.855072 	 -4.551362 	 2.177597 
O 	 -6.985523 	 -1.711097 	 2.319423 
O 	 -4.246890 	 3.331401 	 -3.938857 
O 	 7.652153 	 0.735765 	 -4.076282 
O 	 -6.415743 	 7.323716 	 -5.871490 
O 	 -0.241348 	 -2.487976 	 1.643129 
O 	 1.555430 	 2.805465 	 -2.665036 
O 	 -0.715802 	 -1.588309 	 -3.848210 
O 	 -2.148440 	 4.479739 	 2.233629 
O 	 1.702193 	 -4.710260 	 4.400663 
O 	 5.494629 	 6.271402 	 -0.205126 
O 	 -0.084506 	 -4.697958 	 -1.121298 
O 	 -0.127880 	 -7.081892 	 0.246631 
O 	 -1.042790 	 2.028618 	 1.594847 
O 	 -3.466128 	 -2.352244 	 -7.172626 
O 	 -1.021279 	 -0.052792 	 6.592520 
O 	 2.955980 	 -4.371501 	 -0.147257 
O 	 -4.659704 	 -1.710393 	 -0.422098 
O 	 -6.178157 	 -5.890064 	 0.485811 
O 	 -3.780679 	 1.914994 	 -6.809710 
O 	 -3.681785 	 -5.713705 	 -6.653183 
O 	 5.726182 	 1.908603 	 -6.649472 
O 	 5.976193 	 -5.259716 	 -1.057284 
O 	 -4.324708 	 5.542770 	 -2.199442 
O 	 -5.494138 	 -4.234465 	 -4.575015 
O 	 3.722384 	 -2.480607 	 3.374614 
O 	 -6.500663 	 2.545785 	 3.080800 
O 	 -0.468837 	 -7.356840 	 5.979879 
O 	 -6.569936 	 4.434952 	 6.796067 
O 	 -6.075743 	 7.000944 	 5.813596 
O 	 0.065368 	 2.285550 	 -5.401950 
O 	 1.060893 	 5.233652 	 -1.077817 
O 	 4.558617 	 -2.294029 	 -5.613854 
O 	 -3.188419 	 6.766962 	 7.428055 
O 	 -4.166099 	 -0.238496 	 -2.728705 
O 	 3.729005 	 2.433042 	 1.738957 
O 	 -6.578530 	 0.877313 	 -7.384064 
O 	 -5.264134 	 -5.894924 	 4.060769 
O 	 6.745070 	 4.196646 	 4.511089 
O 	 2.997928 	 1.138463 	 -5.422399 
O 	 -0.443619 	 -4.421453 	 6.411512 
O 	 1.557091 	 0.050832 	 -2.890581 
O 	 2.715549 	 -3.330902 	 -3.220004 
O 	 2.840535 	 -0.209427 	 -0.670590 
O 	 -2.595637 	 5.411260 	 -4.999624 
O 	 1.582741 	 -1.529791 	 -5.268531 
O 	 2.100642 	 4.631669 	 5.908905 
O 	 -5.566766 	 6.875840 	 1.938379 
O 	 5.280773 	 -0.701466 	 -3.346198 
O 	 2.371447 	 6.050608 	 -6.834935 
O 	 -1.321965 	 -4.285041 	 -5.824788 
O 	 2.303047 	 -1.616345 	 6.183864 
O 	 -1.690014 	 0.177127 	 -5.693315 
O 	 -5.228060 	 -0.010836 	 1.623475 
O 	 -3.864778 	 -1.179898 	 5.132519 
O 	 -4.796505 	 4.950962 	 3.726268 
O 	 -5.943586 	 -4.730248 	 7.213839 
O 	 -3.757225 	 4.003197 	 6.385151 
O 	 -5.413019 	 -1.558516 	 -4.907314 
O 	 -1.615466 	 3.267102 	 -3.032342 
O 	 5.949163 	 -5.417224 	 6.430781 
O 	 2.188838 	 -4.401975 	 -7.303371 
O 	 1.054324 	 2.058844 	 3.209744 
O 	 -3.122514 	 -6.762226 	 -2.926809 
O 	 -4.656999 	 2.439452 	 0.467402 
K 	 5.209277 	 5.033004 	 2.096030 
