333
conformation = 5
H 	 750.538722 	 229.170836 	 -41.345868 
H 	 751.237658 	 -769.486545 	 -40.702749 
H 	 -237.893957 	 226.576139 	 -36.027751 
H 	 -236.986698 	 225.424538 	 -36.534732 
H 	 -247.044028 	 -770.595587 	 -48.657246 
H 	 752.643886 	 -769.898477 	 -35.045232 
H 	 -236.921757 	 -769.823460 	 -42.906009 
H 	 749.724455 	 -769.701863 	 -42.722430 
H 	 751.737104 	 227.713029 	 -45.851185 
H 	 751.253119 	 228.115000 	 -47.302819 
H 	 749.259270 	 227.356404 	 -47.931375 
H 	 749.763586 	 228.660767 	 -48.535439 
H 	 -244.814045 	 225.626620 	 -42.992229 
H 	 -245.416984 	 227.067310 	 -43.254862 
H 	 751.277136 	 221.686366 	 -47.948867 
H 	 752.807975 	 221.833798 	 -48.424018 
H 	 -245.044060 	 227.419791 	 -39.044181 
H 	 -245.483793 	 228.085346 	 -37.778469 
H 	 752.811929 	 219.572235 	 -48.266502 
H 	 -245.888404 	 218.691874 	 -47.998564 
H 	 -238.938588 	 -769.828055 	 -41.690774 
H 	 -239.262614 	 -768.680569 	 -42.624049 
H 	 -244.726241 	 221.472825 	 -47.973945 
H 	 -245.274196 	 222.845213 	 951.284804 
H 	 -239.959696 	 219.628292 	 951.200358 
H 	 -240.184669 	 220.202242 	 -47.288710 
H 	 749.438403 	 221.103589 	 -46.531041 
H 	 750.448736 	 222.081213 	 -45.610757 
H 	 -241.040414 	 -769.864245 	 -37.621736 
H 	 -242.293965 	 -768.886331 	 -37.501762 
H 	 -236.077104 	 -769.280397 	 -48.362937 
H 	 750.377540 	 -769.284530 	 -47.619129 
H 	 -238.935126 	 228.229981 	 -34.797075 
H 	 -239.946744 	 226.948412 	 -34.822420 
H 	 -246.816498 	 224.393547 	 -36.870065 
H 	 751.844262 	 223.737392 	 -37.445776 
H 	 -244.158145 	 224.266378 	 -41.016145 
H 	 -245.553071 	 223.556567 	 -40.866892 
H 	 -242.286110 	 223.142398 	 -38.694483 
H 	 -241.199433 	 223.575995 	 -39.732930 
H 	 -244.585252 	 217.519626 	 -40.852307 
H 	 -244.259427 	 218.144301 	 -39.413461 
H 	 -240.904108 	 220.846829 	 -39.060539 
H 	 -240.752410 	 219.284532 	 -39.321979 
H 	 750.733870 	 226.742850 	 -41.136878 
H 	 749.250302 	 227.151096 	 -41.783491 
H 	 752.199530 	 -768.897465 	 -44.444275 
H 	 752.025570 	 -769.190441 	 -42.920491 
H 	 -240.505924 	 226.249118 	 -45.827737 
H 	 -241.036561 	 226.345246 	 -44.359435 
H 	 -241.044023 	 -770.042510 	 951.120155 
H 	 -242.205146 	 -769.161598 	 950.827322 
H 	 -243.424425 	 218.309355 	 -35.495694 
H 	 -244.254230 	 217.586914 	 950.582629 
H 	 -240.920535 	 -768.003481 	 -40.065221 
H 	 -242.309915 	 -767.614115 	 -40.494054 
H 	 750.431549 	 218.750561 	 -37.745784 
H 	 750.338377 	 219.160158 	 -36.239876 
H 	 750.575122 	 224.356751 	 -39.965555 
H 	 750.300648 	 224.852834 	 -38.512377 
H 	 -238.137806 	 -769.385586 	 -34.748053 
H 	 -237.291488 	 -770.526460 	 -35.500796 
H 	 750.225932 	 223.703775 	 -47.538286 
H 	 749.502329 	 225.116593 	 -47.499633 
H 	 -236.298531 	 229.168359 	 -38.480662 
H 	 -236.593662 	 228.238105 	 -39.572181 
H 	 751.335268 	 221.043543 	 -36.839510 
H 	 751.657388 	 221.854012 	 -35.612401 
H 	 752.060503 	 226.239880 	 -43.768526 
H 	 750.607930 	 226.598201 	 -43.909916 
H 	 -237.850869 	 225.958841 	 -42.089825 
H 	 -238.447049 	 227.289974 	 -41.922093 
H 	 752.801138 	 225.768191 	 -39.766177 
H 	 -246.841168 	 225.854627 	 -41.279752 
H 	 -241.894946 	 226.906536 	 -39.064581 
H 	 -240.406296 	 226.385804 	 -38.952152 
H 	 -241.672815 	 223.604730 	 -47.263525 
H 	 -241.581252 	 223.229853 	 951.275120 
H 	 -237.444301 	 222.216848 	 -35.555479 
H 	 -238.195085 	 220.921885 	 -35.652929 
H 	 -242.856650 	 218.740585 	 -37.758918 
H 	 -241.578557 	 218.660346 	 -36.685079 
H 	 -237.951763 	 224.436470 	 -46.450411 
H 	 -237.277923 	 223.062896 	 -46.260554 
H 	 -246.918973 	 219.926340 	 -45.979471 
H 	 -246.300975 	 218.988234 	 -44.925240 
H 	 749.923001 	 -769.652399 	 -35.725561 
H 	 749.403715 	 -769.285952 	 -37.134140 
H 	 -241.740008 	 221.074949 	 950.899890 
H 	 -242.610142 	 221.558072 	 -35.328902 
H 	 -239.732475 	 228.159828 	 -40.148121 
H 	 -240.841509 	 228.917140 	 -40.853342 
H 	 751.895147 	 217.526681 	 -36.218531 
H 	 -246.801047 	 -768.204022 	 -36.953821 
H 	 -245.600565 	 219.299678 	 -35.314679 
H 	 -246.824169 	 219.200320 	 -36.315375 
H 	 -241.869155 	 224.884695 	 -41.264816 
H 	 -243.163220 	 224.393357 	 -42.787451 
H 	 752.866350 	 221.754829 	 -41.693596 
H 	 752.704775 	 222.835173 	 -42.604233 
H 	 -244.797502 	 -770.589033 	 -43.875641 
H 	 -246.257055 	 229.297952 	 -43.345203 
H 	 -239.001993 	 218.466229 	 -36.803016 
H 	 -239.705654 	 219.809788 	 -37.024294 
H 	 -237.778614 	 223.635807 	 -40.764296 
H 	 -236.480908 	 224.386837 	 -40.192736 
H 	 -239.402116 	 220.531368 	 -41.469862 
H 	 -240.455171 	 219.537446 	 -41.210237 
H 	 -241.235132 	 225.304821 	 -35.996091 
H 	 -241.522585 	 226.468046 	 -36.967234 
H 	 -237.063154 	 217.789580 	 -48.300759 
H 	 -238.307681 	 -768.091418 	 -47.744670 
H 	 751.064400 	 228.169719 	 -38.930596 
H 	 752.550226 	 227.755896 	 -38.617663 
H 	 -239.072959 	 -769.114559 	 -39.026608 
H 	 -238.842426 	 -768.046331 	 -40.135730 
H 	 -239.560607 	 228.498826 	 -37.780731 
H 	 -238.953436 	 -770.353264 	 -36.925043 
H 	 -240.394009 	 223.441693 	 -37.488825 
H 	 -240.904870 	 222.786045 	 -36.181379 
H 	 -243.406319 	 219.501072 	 -44.861949 
H 	 -242.828748 	 218.152958 	 -45.360783 
H 	 -239.495157 	 222.193292 	 -46.422691 
H 	 -240.424298 	 221.429013 	 -45.352837 
H 	 749.376686 	 -768.064043 	 -39.161600 
H 	 -237.040233 	 -767.633254 	 -38.573783 
H 	 -244.038268 	 220.330271 	 -37.820215 
H 	 -243.609733 	 220.328618 	 -39.334953 
H 	 -244.945282 	 -768.494153 	 -38.452189 
H 	 -244.754525 	 -769.735039 	 -37.499524 
H 	 -243.839904 	 223.123511 	 -45.204088 
H 	 -242.423044 	 223.129679 	 -44.490417 
H 	 -242.033349 	 -768.641067 	 -44.433178 
H 	 -242.680264 	 -769.502124 	 -45.471197 
H 	 752.614113 	 223.102439 	 -45.270162 
H 	 751.422364 	 224.050509 	 -45.196373 
H 	 751.406398 	 -768.222662 	 -38.437560 
H 	 752.361775 	 -769.337970 	 -38.923796 
H 	 -244.057084 	 226.537736 	 -40.846341 
H 	 -243.492703 	 228.014434 	 -40.551074 
H 	 -245.685098 	 -767.977502 	 -42.924971 
H 	 -244.991073 	 218.492570 	 -42.572557 
H 	 -236.072129 	 219.821900 	 -34.717780 
H 	 750.407966 	 219.610130 	 951.127594 
H 	 -245.355276 	 224.990163 	 -35.125965 
H 	 -246.669104 	 224.627424 	 950.746765 
H 	 -239.476200 	 228.270917 	 -47.612716 
H 	 -239.707424 	 228.664939 	 -46.169648 
H 	 -244.864364 	 225.722165 	 -46.377429 
H 	 -245.882516 	 225.959667 	 -45.249914 
H 	 -244.691256 	 228.369351 	 -46.448882 
H 	 -245.960187 	 228.020372 	 -47.078366 
H 	 -238.270668 	 223.645463 	 -43.313894 
H 	 -239.217204 	 224.738202 	 -43.907832 
H 	 -237.645887 	 225.966726 	 -39.558868 
H 	 -237.881894 	 226.741437 	 -38.189772 
H 	 751.424069 	 219.626388 	 -44.294196 
H 	 750.849819 	 218.446371 	 -43.306176 
H 	 -242.218168 	 228.181996 	 -44.489241 
H 	 -242.385130 	 227.409812 	 -45.898845 
H 	 -243.981560 	 222.253021 	 -40.504550 
H 	 -242.730030 	 221.565000 	 -41.121768 
H 	 750.012797 	 223.536978 	 -36.177004 
H 	 -236.093547 	 224.190723 	 -35.151550 
H 	 -245.569536 	 222.449265 	 -46.304269 
H 	 -245.593333 	 221.632317 	 -45.004124 
H 	 -244.819698 	 -769.940305 	 -34.585237 
H 	 -244.288788 	 -769.802390 	 -48.155722 
H 	 751.689906 	 225.238783 	 -48.170463 
H 	 -246.999922 	 225.665858 	 -47.588803 
H 	 749.609986 	 222.865242 	 -43.110105 
H 	 -236.341330 	 221.712902 	 -43.799358 
H 	 -240.075671 	 217.840871 	 -47.246960 
H 	 -240.209604 	 -768.897196 	 -47.187312 
H 	 -237.127669 	 221.594316 	 -40.547731 
H 	 -237.305760 	 221.762127 	 -42.010500 
H 	 -236.690543 	 218.567985 	 -41.873320 
H 	 -236.716056 	 -767.995963 	 -41.268083 
H 	 749.601226 	 222.221032 	 -38.748402 
H 	 -236.342997 	 221.495188 	 -37.779760 
H 	 -241.209034 	 227.190099 	 -42.207548 
H 	 -242.547470 	 226.557299 	 -42.639477 
H 	 -238.430886 	 219.513115 	 -43.287503 
H 	 -237.309904 	 219.381417 	 -44.315511 
H 	 -238.026886 	 226.504233 	 -47.757637 
H 	 -237.269025 	 226.776982 	 -46.389229 
H 	 -244.638438 	 227.891161 	 -35.791309 
H 	 -246.042305 	 228.634887 	 -35.580161 
H 	 751.300190 	 220.296821 	 -40.832428 
H 	 750.919719 	 220.375928 	 -42.316761 
H 	 -237.032676 	 227.536017 	 -43.946139 
H 	 -236.356416 	 228.467907 	 -44.810541 
H 	 -239.850079 	 217.638341 	 -44.513672 
H 	 -240.643867 	 218.088396 	 -43.090745 
H 	 -236.809414 	 219.025040 	 -46.602342 
H 	 -237.926910 	 219.935015 	 -47.255658 
H 	 -240.267663 	 222.702497 	 -43.424863 
H 	 -240.886700 	 221.305476 	 -43.104456 
H 	 -245.187953 	 221.374617 	 -35.982209 
H 	 -244.438041 	 222.634641 	 -36.704307 
H 	 -243.522470 	 219.689723 	 -48.434111 
H 	 -243.036186 	 220.115313 	 -46.985914 
H 	 -244.004723 	 226.723882 	 -48.431297 
H 	 -242.948141 	 226.437510 	 -34.671953 
H 	 -244.507030 	 -768.382759 	 -45.458984 
H 	 -244.726637 	 -768.268254 	 -46.920547 
H 	 -242.870711 	 225.134535 	 -46.047572 
H 	 -242.351717 	 225.452270 	 -47.423085 
H 	 -245.518824 	 220.850771 	 -43.185223 
H 	 -244.386873 	 220.781773 	 -42.118221 
H 	 -240.390430 	 224.392998 	 -41.372977 
H 	 -244.196635 	 224.160376 	 -38.647959 
H 	 752.609311 	 -768.544118 	 -46.775486 
H 	 751.847442 	 -769.850261 	 -46.451201 
H 	 -236.394845 	 -767.955435 	 -44.903310 
H 	 -237.481096 	 -768.487909 	 -45.791147 
H 	 -238.169937 	 223.451652 	 951.262471 
H 	 -239.051707 	 223.773641 	 -35.133052 
H 	 -242.458401 	 -769.734019 	 -40.038396 
H 	 -242.624405 	 -769.534294 	 -41.529626 
H 	 -243.271600 	 224.779120 	 -37.473885 
O 	 750.991269 	 -769.957536 	 -41.534134 
O 	 -237.222925 	 226.333114 	 -36.726446 
O 	 752.626796 	 229.218725 	 -34.626067 
O 	 -236.055744 	 -769.823026 	 -43.425414 
O 	 751.953953 	 228.294423 	 -46.608241 
O 	 749.960423 	 227.690832 	 -48.581687 
O 	 -245.683944 	 226.129083 	 -43.128934 
O 	 751.924784 	 221.484703 	 -48.649554 
O 	 -245.823052 	 227.400464 	 -38.396363 
O 	 -246.747551 	 218.961182 	 -47.638511 
O 	 -238.507332 	 -769.053841 	 -42.098965 
O 	 -245.382187 	 222.251580 	 -47.951991 
O 	 -239.804888 	 219.455628 	 -47.869718 
O 	 750.019764 	 221.867596 	 -46.469643 
O 	 -241.973082 	 -769.768192 	 -37.867833 
O 	 749.950032 	 -769.630776 	 -48.456638 
O 	 -239.235141 	 227.356006 	 950.737054 
O 	 752.465121 	 224.492179 	 -37.558520 
O 	 -244.703988 	 223.691460 	 -40.359688 
O 	 -241.460517 	 222.796312 	 -39.090663 
O 	 -244.097301 	 -767.717735 	 -40.002799 
O 	 -240.216660 	 220.100455 	 -39.082652 
O 	 750.253612 	 227.131040 	 -41.886424 
O 	 752.613116 	 -768.708730 	 -43.549679 
O 	 -240.298683 	 225.944584 	 -44.939518 
O 	 -241.252978 	 -769.108238 	 950.982579 
O 	 -244.009077 	 218.499657 	 -34.748658 
O 	 -241.378225 	 217.676184 	 -40.706559 
O 	 750.984716 	 219.059046 	 -37.021098 
O 	 750.064105 	 224.177950 	 -39.179718 
O 	 -238.192675 	 -770.294486 	 -35.223064 
O 	 750.369299 	 224.663688 	 -47.392564 
O 	 -235.951383 	 228.962346 	 -39.362482 
O 	 751.297834 	 221.951309 	 -36.481899 
O 	 751.386879 	 226.262065 	 -44.434464 
O 	 -237.686724 	 226.854338 	 -42.317892 
O 	 752.406200 	 225.605481 	 -40.685380 
O 	 -241.089130 	 226.916059 	 -38.496517 
O 	 -241.252526 	 223.912023 	 -48.052547 
O 	 -237.249965 	 221.242915 	 -35.684864 
O 	 -242.386238 	 218.234015 	 -36.992212 
O 	 -238.079762 	 223.453221 	 -46.555952 
O 	 -246.735405 	 219.828557 	 -45.049189 
O 	 749.476345 	 -770.059044 	 -36.511666 
O 	 -241.680728 	 221.688838 	 -34.977773 
O 	 -239.988312 	 228.381588 	 -41.026764 
O 	 752.728774 	 -768.037172 	 -36.144661 
O 	 -246.267750 	 219.809889 	 -35.802988 
O 	 -243.348843 	 224.967058 	 -42.021952 
O 	 -246.575065 	 222.327154 	 -42.229699 
O 	 -245.533481 	 228.782996 	 -43.754001 
O 	 -239.572320 	 219.155164 	 -36.296124 
O 	 -237.371683 	 224.493282 	 -40.675308 
O 	 -240.065985 	 220.060922 	 -41.954124 
O 	 -241.510185 	 226.243699 	 -35.997566 
O 	 -237.654760 	 -768.033733 	 -48.447718 
O 	 751.577272 	 227.655498 	 -38.346748 
O 	 -239.093949 	 -768.157428 	 -39.198675 
O 	 -239.288590 	 -770.582994 	 -37.799511 
O 	 -240.448254 	 223.582290 	 -36.515491 
O 	 -242.739111 	 219.108812 	 -45.431128 
O 	 -240.190815 	 221.480643 	 -46.284140 
O 	 -236.091004 	 -767.724004 	 -38.324502 
O 	 -243.854933 	 219.744014 	 -38.560426 
O 	 -245.441145 	 -769.148042 	 -37.948524 
O 	 -243.068265 	 223.691200 	 -44.959870 
O 	 -242.907836 	 -769.048818 	 -44.646480 
O 	 751.715230 	 223.154230 	 -44.878611 
O 	 751.744351 	 -768.656381 	 -39.267781 
O 	 -243.851236 	 227.203248 	 -40.162763 
O 	 -244.809270 	 -767.599450 	 -42.574017 
O 	 749.789563 	 219.165909 	 -34.621726 
O 	 -246.003613 	 224.267359 	 -35.073626 
O 	 -239.395502 	 229.042366 	 -47.012390 
O 	 -245.766395 	 226.020934 	 -46.247823 
O 	 -245.257425 	 228.722376 	 -47.160714 
O 	 -239.153489 	 224.050877 	 -43.205133 
O 	 -238.097086 	 226.791583 	 -39.174548 
O 	 750.688683 	 219.318389 	 -43.765676 
O 	 -242.255550 	 228.322988 	 -45.491155 
O 	 -243.628936 	 221.355245 	 -40.782903 
O 	 749.543622 	 224.364818 	 -35.917705 
O 	 -245.557851 	 222.594442 	 -45.273267 
O 	 -244.512707 	 -769.232669 	 951.087404 
O 	 752.511743 	 225.760239 	 -48.402777 
O 	 -236.375582 	 222.667422 	 -43.580919 
O 	 -239.795882 	 -768.129322 	 -46.815157 
O 	 -237.853255 	 221.686902 	 -41.208319 
O 	 -236.270251 	 217.985251 	 -41.197165 
O 	 -236.184202 	 221.525861 	 -38.731118 
O 	 -241.862793 	 227.223113 	 -42.918637 
O 	 -237.497942 	 219.718232 	 -43.404312 
O 	 -237.282794 	 226.240720 	 -47.174455 
O 	 -245.144765 	 228.719615 	 -35.935283 
O 	 751.182838 	 220.999433 	 -41.525603 
O 	 -236.685839 	 227.565121 	 -44.884957 
O 	 -240.274125 	 -767.759520 	 -43.653558 
O 	 -237.017917 	 219.937419 	 -46.903673 
O 	 -240.949037 	 222.053353 	 -43.734380 
O 	 -244.360397 	 221.691910 	 -36.395049 
O 	 -243.291270 	 220.485890 	 -47.856048 
O 	 -243.942952 	 226.542122 	 950.616563 
O 	 -245.169352 	 -768.127017 	 -46.093203 
O 	 -242.878536 	 225.859780 	 -46.708752 
O 	 -244.837686 	 220.225311 	 -42.829391 
O 	 -240.980275 	 224.832587 	 -40.727672 
O 	 751.726505 	 -768.852923 	 -46.501077 
O 	 -237.023909 	 -767.676037 	 -45.593433 
O 	 -238.103766 	 223.699226 	 -34.826229 
O 	 -242.464048 	 -770.259905 	 -40.893254 
O 	 -243.631253 	 223.968781 	 -37.821768 
K 	 751.168573 	 226.745728 	 -35.989697 
