333
conformation = 60
H 	 4.924276 	 -7.486861 	 -3.563773 
H 	 5.179988 	 -6.140702 	 -2.578169 
H 	 1.421379 	 4.478639 	 2.232004 
H 	 2.495150 	 3.860435 	 1.402918 
H 	 6.603144 	 7.357799 	 3.948185 
H 	 6.684419 	 -6.354279 	 2.870064 
H 	 2.069257 	 -6.433604 	 -5.095364 
H 	 3.520010 	 -6.690113 	 -4.837604 
H 	 5.775792 	 6.112091 	 7.198829 
H 	 5.267495 	 6.396838 	 5.744412 
H 	 3.259540 	 5.563922 	 4.838344 
H 	 3.839405 	 7.001704 	 4.432935 
H 	 -5.748513 	 3.915764 	 -4.712116 
H 	 -6.647451 	 5.143874 	 -5.106665 
H 	 5.493580 	 0.125324 	 5.023373 
H 	 6.917691 	 -0.092103 	 4.573689 
H 	 -5.943939 	 5.500676 	 -0.958267 
H 	 -6.239681 	 5.852442 	 0.452691 
H 	 6.827055 	 -1.834830 	 4.704252 
H 	 -6.826552 	 -2.706411 	 4.695901 
H 	 0.149181 	 -6.796208 	 -3.804836 
H 	 -0.010935 	 -5.497386 	 -4.668787 
H 	 -5.421636 	 -0.035910 	 4.698367 
H 	 -6.208082 	 1.202805 	 4.211717 
H 	 -0.827760 	 -2.211436 	 4.106629 
H 	 -0.964704 	 -1.571706 	 5.535912 
H 	 3.652232 	 -0.449601 	 6.463535 
H 	 4.633165 	 0.598460 	 7.149071 
H 	 -2.085042 	 -6.494332 	 0.111633 
H 	 -3.042353 	 -5.259239 	 0.077027 
H 	 3.133532 	 -5.768935 	 4.930205 
H 	 4.645080 	 -5.827233 	 5.127297 
H 	 0.472477 	 6.252950 	 3.377233 
H 	 -0.876504 	 5.379487 	 3.314121 
H 	 7.432436 	 3.168520 	 0.859677 
H 	 6.509782 	 1.926353 	 0.638343 
H 	 -4.972828 	 2.498349 	 -2.778925 
H 	 -6.414802 	 1.885185 	 -2.495349 
H 	 -2.822744 	 1.518829 	 -0.618361 
H 	 -1.669729 	 1.714978 	 -1.593212 
H 	 -5.439774 	 -4.462074 	 -2.667953 
H 	 -5.555632 	 -3.802907 	 -1.163312 
H 	 -1.387844 	 -0.688431 	 -0.826601 
H 	 -1.776131 	 -2.166801 	 -1.194229 
H 	 4.814279 	 4.706525 	 -3.256078 
H 	 3.446911 	 5.384015 	 -3.692618 
H 	 6.195595 	 -5.044749 	 -6.056031 
H 	 6.096780 	 -5.765441 	 -4.665601 
H 	 -1.617779 	 3.727770 	 7.176439 
H 	 -1.453100 	 4.555731 	 -6.408165 
H 	 -2.257949 	 -6.619765 	 4.469926 
H 	 -3.177907 	 -5.657257 	 3.798145 
H 	 -4.069811 	 -3.316717 	 2.564054 
H 	 -5.088468 	 -4.050289 	 3.668992 
H 	 -1.629125 	 -4.636072 	 -2.113723 
H 	 -3.155611 	 -4.305808 	 -2.112721 
H 	 4.178666 	 -3.173049 	 0.516517 
H 	 4.613285 	 -2.846949 	 1.916304 
H 	 4.869625 	 2.395874 	 -1.933741 
H 	 4.371676 	 3.053316 	 -0.674477 
H 	 1.056157 	 -6.150699 	 3.401278 
H 	 2.057517 	 -6.917163 	 2.409982 
H 	 4.098086 	 2.086830 	 5.949086 
H 	 3.693679 	 3.642753 	 5.818888 
H 	 3.043742 	 7.128375 	 -0.363759 
H 	 2.201030 	 6.364390 	 -1.346815 
H 	 4.860731 	 -0.654290 	 1.075896 
H 	 5.516304 	 -0.181910 	 2.323552 
H 	 6.517276 	 4.408335 	 -6.081040 
H 	 5.140946 	 5.123058 	 -5.703703 
H 	 1.552884 	 4.386267 	 -3.712541 
H 	 0.836573 	 5.724090 	 -3.801348 
H 	 7.097168 	 3.750910 	 -1.875744 
H 	 7.077281 	 3.871999 	 -3.474747 
H 	 -2.640644 	 5.703803 	 -0.806863 
H 	 -1.655318 	 4.571561 	 -1.239883 
H 	 -1.654154 	 1.547497 	 5.368731 
H 	 -2.437862 	 1.949564 	 4.002795 
H 	 1.322048 	 -0.165468 	 3.030484 
H 	 1.126874 	 -1.506625 	 2.277820 
H 	 -3.332235 	 -3.077960 	 0.515368 
H 	 -2.142974 	 -3.177747 	 1.511636 
H 	 1.305270 	 2.416240 	 6.256321 
H 	 2.043108 	 1.112993 	 6.494670 
H 	 7.189428 	 -2.684824 	 7.078507 
H 	 -6.971699 	 -2.698650 	 -6.437214 
H 	 4.009354 	 -6.373403 	 2.583342 
H 	 3.835156 	 -5.670095 	 1.266186 
H 	 -3.071790 	 -0.424673 	 3.756381 
H 	 -3.523154 	 -0.021154 	 2.307969 
H 	 -0.635660 	 6.041462 	 -2.381625 
H 	 -1.560413 	 7.113438 	 -2.757531 
H 	 6.316151 	 -4.310493 	 1.291010 
H 	 -7.225875 	 -4.960323 	 1.768423 
H 	 -6.444398 	 -2.627515 	 2.598947 
H 	 7.098831 	 -2.093869 	 1.799505 
H 	 -2.620801 	 3.090705 	 -3.336110 
H 	 -4.152299 	 2.663542 	 -4.720348 
H 	 6.634519 	 0.629960 	 -3.704610 
H 	 7.512146 	 1.276062 	 -4.786948 
H 	 -5.593367 	 -7.240871 	 -5.741628 
H 	 -7.114674 	 -6.957317 	 -5.829204 
H 	 0.391280 	 -3.273801 	 1.787102 
H 	 -0.243195 	 -2.430213 	 0.690387 
H 	 1.476654 	 1.725064 	 -2.787091 
H 	 2.573814 	 2.790825 	 -2.357535 
H 	 -0.056080 	 -1.239985 	 -3.286549 
H 	 -1.056951 	 -2.501032 	 -3.374457 
H 	 -1.652944 	 3.574177 	 2.040391 
H 	 -2.216286 	 4.767482 	 1.209064 
H 	 1.790020 	 -3.930049 	 4.083051 
H 	 0.949356 	 -4.749945 	 5.168142 
H 	 4.969458 	 6.466908 	 -0.855998 
H 	 6.420454 	 6.132186 	 -0.550388 
H 	 0.013141 	 -5.629798 	 -0.578081 
H 	 0.331170 	 -5.006228 	 -1.982168 
H 	 0.165552 	 6.873196 	 -0.089116 
H 	 0.247750 	 -7.059667 	 1.143085 
H 	 -1.263892 	 1.589683 	 0.687765 
H 	 -1.611553 	 1.272658 	 2.190429 
H 	 -3.987446 	 -2.010389 	 -6.545423 
H 	 -4.183974 	 -3.175007 	 -7.343936 
H 	 -0.205253 	 0.255812 	 6.606024 
H 	 -1.335516 	 -0.329135 	 -7.297298 
H 	 2.962244 	 -4.068008 	 -1.027219 
H 	 2.038479 	 -4.320818 	 0.037759 
H 	 -4.996519 	 -1.259395 	 0.307294 
H 	 -4.749046 	 -1.278742 	 -1.250496 
H 	 -5.730809 	 -5.584837 	 -0.350232 
H 	 -5.690988 	 -6.730959 	 0.792608 
H 	 -4.773962 	 1.558752 	 -6.867019 
H 	 -3.255025 	 1.157874 	 -6.426571 
H 	 -3.112418 	 -5.294915 	 -6.076274 
H 	 -3.313546 	 -6.607265 	 -6.888799 
H 	 6.559980 	 1.538327 	 -7.128797 
H 	 5.581843 	 2.686073 	 -6.973905 
H 	 5.444635 	 -4.801972 	 -0.394294 
H 	 6.763115 	 -5.628218 	 -0.724641 
H 	 -4.155045 	 4.724544 	 -2.809175 
H 	 -4.286391 	 6.266883 	 -2.689712 
H 	 -6.470962 	 -4.524418 	 -4.880944 
H 	 -5.668532 	 -3.328043 	 -4.525806 
H 	 3.175862 	 -1.810185 	 3.077006 
H 	 4.354807 	 -2.332119 	 4.110154 
H 	 -5.789494 	 2.957718 	 3.144237 
H 	 7.644411 	 2.957391 	 3.689952 
H 	 -0.454015 	 6.650861 	 5.304429 
H 	 -0.976915 	 7.085653 	 6.700051 
H 	 -5.694456 	 4.246887 	 6.431576 
H 	 -6.503544 	 4.355537 	 -7.148825 
H 	 -5.641440 	 7.132542 	 6.632245 
H 	 -7.062179 	 6.923190 	 6.086363 
H 	 0.954854 	 1.996051 	 -5.474784 
H 	 -0.202399 	 2.857798 	 -6.068053 
H 	 1.268957 	 4.301701 	 -1.514032 
H 	 1.162640 	 4.903353 	 -0.098978 
H 	 5.482610 	 -2.444273 	 -5.934960 
H 	 4.337704 	 -3.230487 	 -5.085183 
H 	 -3.036841 	 6.022849 	 -6.703714 
H 	 -3.510017 	 6.166033 	 6.632929 
H 	 -4.850182 	 0.508319 	 -2.522324 
H 	 -3.364962 	 -0.095898 	 -2.556718 
H 	 4.255831 	 1.594207 	 1.787728 
H 	 2.932736 	 2.087949 	 2.345155 
H 	 -6.369373 	 0.954233 	 6.597068 
H 	 -6.513965 	 -0.180949 	 -7.310957 
H 	 -5.210635 	 -6.256540 	 3.130490 
H 	 -5.953785 	 -6.666547 	 4.449556 
H 	 6.038944 	 3.614359 	 5.154902 
H 	 7.305249 	 4.498350 	 5.128776 
H 	 3.775158 	 1.256873 	 -5.976810 
H 	 2.650759 	 0.120455 	 -5.677793 
H 	 -0.739118 	 -3.779417 	 5.853593 
H 	 -1.049580 	 -5.248876 	 5.926114 
H 	 1.835458 	 -0.335169 	 -2.078222 
H 	 2.192939 	 0.019904 	 -3.644843 
H 	 2.431325 	 -2.647457 	 -3.682231 
H 	 2.598009 	 -4.182713 	 -3.894284 
H 	 3.167286 	 0.642241 	 -0.710967 
H 	 2.308747 	 -0.405367 	 0.079098 
H 	 -2.088937 	 5.664739 	 -4.173365 
H 	 -3.123388 	 4.542066 	 -4.644424 
H 	 0.569660 	 -1.646976 	 -5.012840 
H 	 1.544291 	 -2.550000 	 -5.702259 
H 	 1.256973 	 4.778232 	 5.355418 
H 	 2.089766 	 5.235649 	 6.660000 
H 	 -5.378454 	 6.149195 	 2.623802 
H 	 -6.675707 	 7.019469 	 2.256248 
H 	 4.982555 	 -1.385357 	 -2.644325 
H 	 5.108811 	 -1.338832 	 -4.196307 
H 	 2.007438 	 5.312002 	 -6.141649 
H 	 2.665557 	 6.735555 	 -6.390131 
H 	 -1.347935 	 -4.491946 	 -6.757212 
H 	 -1.272522 	 -3.376140 	 -5.626647 
H 	 2.303332 	 -2.582227 	 6.546373 
H 	 1.368450 	 -1.702721 	 5.680377 
H 	 -1.050936 	 0.834203 	 -5.430383 
H 	 -1.567015 	 -0.552833 	 -5.010182 
H 	 -6.116067 	 -0.481439 	 2.094009 
H 	 -5.535192 	 0.750949 	 1.319794 
H 	 -4.249911 	 -2.074850 	 4.668808 
H 	 -3.825773 	 -1.544772 	 6.077591 
H 	 -4.838782 	 5.356481 	 4.553092 
H 	 -3.929732 	 4.658596 	 3.348057 
H 	 -5.184589 	 -5.259561 	 -7.302928 
H 	 -5.719733 	 -4.766558 	 6.232137 
H 	 -3.872955 	 3.250957 	 7.058112 
H 	 -3.314660 	 3.407581 	 5.672493 
H 	 -6.311449 	 -1.083710 	 -4.677611 
H 	 -4.919236 	 -1.349783 	 -4.110343 
H 	 -1.144584 	 2.996575 	 -3.767442 
H 	 -5.050531 	 2.294906 	 -0.476940 
H 	 6.703660 	 -5.033537 	 6.394641 
H 	 6.136480 	 -6.468056 	 6.466808 
H 	 2.411316 	 -5.342038 	 -7.015396 
H 	 1.292281 	 -4.671215 	 7.213975 
H 	 0.300495 	 2.133729 	 3.877669 
H 	 0.475325 	 2.053284 	 2.437245 
H 	 -3.206466 	 -6.604575 	 -1.990864 
H 	 -3.107113 	 -6.001699 	 -3.453791 
H 	 -4.725957 	 3.229716 	 0.643933 
O 	 5.045292 	 -6.517580 	 -3.495781 
O 	 2.039233 	 4.705659 	 1.467739 
O 	 6.840032 	 -7.326406 	 3.054413 
O 	 2.931992 	 -6.538151 	 -5.579118 
O 	 5.905683 	 6.689114 	 6.417303 
O 	 4.001005 	 6.013783 	 4.359714 
O 	 -6.645058 	 4.175502 	 -4.992541 
O 	 6.011470 	 -0.367430 	 4.334835 
O 	 -6.724377 	 5.646538 	 -0.340032 
O 	 7.225654 	 -2.617859 	 5.184057 
O 	 0.552800 	 -5.946786 	 -4.021622 
O 	 -6.223463 	 0.480627 	 4.919701 
O 	 -0.491513 	 -2.252783 	 5.004120 
O 	 4.112316 	 0.415951 	 6.324393 
O 	 -2.981110 	 -6.226243 	 -0.095380 
O 	 3.926132 	 -6.119289 	 4.523237 
O 	 -0.042212 	 5.540051 	 3.782083 
O 	 6.619892 	 2.870442 	 0.395929 
O 	 -5.549554 	 1.898497 	 -2.082936 
O 	 -2.015550 	 1.078296 	 -0.936764 
O 	 -5.122613 	 -4.502405 	 -1.717620 
O 	 -1.071393 	 -1.624490 	 -0.769125 
O 	 4.434825 	 5.402875 	 -3.756457 
O 	 6.731437 	 -5.455133 	 -5.335796 
O 	 -0.980700 	 4.169197 	 -7.161265 
O 	 -2.228363 	 -5.825290 	 3.917117 
O 	 -4.814821 	 -3.168784 	 3.253171 
O 	 -2.342401 	 -4.166889 	 -2.652580 
O 	 4.958415 	 -2.875357 	 1.011516 
O 	 4.052745 	 2.524647 	 -1.442868 
O 	 1.150460 	 -6.912554 	 2.817788 
O 	 4.410786 	 2.950126 	 5.609694 
O 	 2.896055 	 7.069704 	 -1.320888 
O 	 5.246782 	 0.159758 	 1.448371 
O 	 5.674122 	 4.663128 	 -6.444520 
O 	 1.494485 	 5.173498 	 -4.222582 
O 	 6.485757 	 3.930515 	 -2.664739 
O 	 -1.736187 	 5.360758 	 -0.686198 
O 	 -2.211845 	 2.229449 	 4.940924 
O 	 1.760316 	 -0.743521 	 2.350613 
O 	 -2.952865 	 -3.646368 	 1.205960 
O 	 1.184044 	 1.479458 	 6.427023 
O 	 7.311593 	 -2.195114 	 -6.964785 
O 	 3.617157 	 -6.516624 	 1.693036 
O 	 -2.780520 	 0.060312 	 2.911069 
O 	 -0.794001 	 6.611982 	 -3.124015 
O 	 6.776416 	 -4.615656 	 2.104228 
O 	 -6.999589 	 -1.846024 	 2.301624 
O 	 -4.274085 	 3.230749 	 -3.936667 
O 	 7.572865 	 0.609108 	 -4.098251 
O 	 -6.451518 	 7.191592 	 -5.816163 
O 	 -0.333658 	 -2.559098 	 1.662472 
O 	 1.607949 	 2.662216 	 -2.656609 
O 	 -0.772809 	 -1.664481 	 -3.882924 
O 	 -2.223801 	 4.391678 	 2.191871 
O 	 1.665400 	 -4.800231 	 4.432283 
O 	 5.511546 	 6.116048 	 -0.184858 
O 	 -0.134496 	 -4.797485 	 -1.129952 
O 	 -0.148586 	 -7.165968 	 0.211877 
O 	 -1.123509 	 1.933576 	 1.575773 
O 	 -3.491832 	 -2.487370 	 -7.242466 
O 	 -1.055308 	 -0.189641 	 6.638763 
O 	 2.991500 	 -4.472946 	 -0.133565 
O 	 -4.697386 	 -1.820230 	 -0.443453 
O 	 -6.222211 	 -5.948720 	 0.407442 
O 	 -3.814676 	 1.852921 	 -6.857669 
O 	 -3.741222 	 -5.770738 	 -6.654462 
O 	 5.689371 	 1.727624 	 -6.699517 
O 	 5.892024 	 -5.343086 	 -1.090785 
O 	 -4.463713 	 5.437235 	 -2.175045 
O 	 -5.544117 	 -4.287418 	 -4.589679 
O 	 3.722609 	 -2.563665 	 3.382863 
O 	 -6.633430 	 2.472318 	 3.063746 
O 	 -0.422842 	 -7.480811 	 5.966194 
O 	 -6.618503 	 4.358550 	 6.751871 
O 	 -6.117503 	 6.906137 	 5.812598 
O 	 0.027048 	 2.203651 	 -5.332682 
O 	 1.062315 	 5.166134 	 -1.049170 
O 	 4.549734 	 -2.403490 	 -5.629986 
O 	 -3.205979 	 6.668498 	 7.431328 
O 	 -4.296452 	 -0.315328 	 -2.750272 
O 	 3.669502 	 2.414547 	 1.823995 
O 	 -6.566703 	 0.800679 	 -7.375303 
O 	 -5.340314 	 -5.984380 	 4.079300 
O 	 6.676836 	 4.073718 	 4.531088 
O 	 2.931561 	 1.033215 	 -5.438890 
O 	 -0.499057 	 -4.575019 	 6.343414 
O 	 1.507024 	 -0.032591 	 -2.956911 
O 	 2.710235 	 -3.486098 	 -3.195454 
O 	 2.840970 	 -0.278463 	 -0.696101 
O 	 -2.655207 	 5.366324 	 -4.924960 
O 	 1.527441 	 -1.667920 	 -5.238758 
O 	 2.033528 	 4.545342 	 5.902941 
O 	 -5.681934 	 6.828047 	 1.924542 
O 	 5.271785 	 -0.776800 	 -3.371542 
O 	 2.362892 	 5.940090 	 -6.847778 
O 	 -1.309147 	 -4.367341 	 -5.767144 
O 	 2.227950 	 -1.712924 	 6.138258 
O 	 -1.730619 	 0.131275 	 -5.687844 
O 	 -5.282792 	 -0.108776 	 1.638609 
O 	 -3.946334 	 -1.276641 	 5.150775 
O 	 -4.832560 	 4.845334 	 3.736826 
O 	 -5.973810 	 -4.844774 	 7.155784 
O 	 -3.781315 	 3.967246 	 6.343019 
O 	 -5.512618 	 -1.631374 	 -4.872079 
O 	 -1.693413 	 3.168263 	 -2.976473 
O 	 5.871277 	 -5.529693 	 6.424715 
O 	 2.168773 	 -4.473723 	 -7.364100 
O 	 1.016483 	 1.964811 	 3.204771 
O 	 -3.183895 	 -6.802667 	 -2.917512 
O 	 -4.662152 	 2.304500 	 0.440266 
K 	 5.180218 	 4.953178 	 2.069239 
