333
conformation = 69
H 	 5.001800 	 -7.462348 	 -3.518708 
H 	 5.343469 	 -6.173349 	 -2.662818 
H 	 1.472144 	 4.696714 	 2.220647 
H 	 2.502803 	 3.831863 	 1.372034 
H 	 6.553968 	 -7.422290 	 3.842043 
H 	 6.683349 	 -6.310910 	 2.776541 
H 	 2.027435 	 -6.489087 	 -5.269812 
H 	 3.503900 	 -6.558537 	 -4.849521 
H 	 5.816805 	 6.080518 	 7.123651 
H 	 5.206587 	 6.552807 	 5.728296 
H 	 3.350507 	 5.693377 	 4.872800 
H 	 3.786710 	 7.026041 	 4.425387 
H 	 -5.654619 	 3.970630 	 -4.787847 
H 	 -6.618611 	 5.198811 	 -5.099895 
H 	 5.445385 	 0.210914 	 4.857977 
H 	 6.982361 	 0.042883 	 4.372702 
H 	 -5.983348 	 5.474386 	 -1.040810 
H 	 -6.138987 	 5.791800 	 0.448176 
H 	 6.674491 	 -1.873698 	 4.765801 
H 	 -6.868301 	 -2.631933 	 4.552677 
H 	 0.208530 	 -6.838924 	 -3.871051 
H 	 -0.075829 	 -5.587485 	 -4.713094 
H 	 -5.410521 	 -0.067724 	 4.698786 
H 	 -6.244041 	 1.204596 	 4.097411 
H 	 -0.812765 	 -2.175861 	 4.054825 
H 	 -0.920971 	 -1.506080 	 5.509355 
H 	 3.753363 	 -0.419184 	 6.134193 
H 	 4.591691 	 0.650139 	 7.145266 
H 	 -2.075666 	 -6.436181 	 0.130756 
H 	 -3.013481 	 -5.218976 	 -0.002272 
H 	 3.107631 	 -5.714522 	 4.805877 
H 	 4.655969 	 -5.866250 	 5.180922 
H 	 0.544397 	 6.325991 	 3.351513 
H 	 -0.824792 	 5.378347 	 3.207078 
H 	 7.491246 	 3.242071 	 0.728634 
H 	 6.484266 	 2.046237 	 0.683955 
H 	 -4.973392 	 2.447816 	 -2.812799 
H 	 -6.376075 	 1.904846 	 -2.548195 
H 	 -2.768849 	 1.564657 	 -0.644737 
H 	 -1.571941 	 1.793895 	 -1.617262 
H 	 -5.413800 	 -4.430237 	 -2.688413 
H 	 -5.510256 	 -3.737724 	 -1.238414 
H 	 -1.305461 	 -0.659527 	 -0.759037 
H 	 -1.727963 	 -1.998056 	 -1.240107 
H 	 4.963724 	 4.803559 	 -3.244034 
H 	 3.525536 	 5.478592 	 -3.735842 
H 	 6.292579 	 -4.901195 	 -6.005975 
H 	 6.073041 	 -5.779980 	 -4.716876 
H 	 -1.678701 	 3.716562 	 7.260149 
H 	 -1.334236 	 4.580873 	 -6.460497 
H 	 -2.123496 	 -6.586195 	 4.494830 
H 	 -3.176812 	 -5.633884 	 3.950171 
H 	 -4.142237 	 -3.476268 	 2.526017 
H 	 -4.981324 	 -3.991112 	 3.596952 
H 	 -1.645594 	 -4.634501 	 -2.256735 
H 	 -3.085923 	 -4.247146 	 -2.083892 
H 	 4.206840 	 -3.295570 	 0.494984 
H 	 4.676013 	 -2.784785 	 1.913046 
H 	 4.883375 	 2.483481 	 -2.136290 
H 	 4.408100 	 3.022489 	 -0.726174 
H 	 1.177784 	 -6.102359 	 3.311199 
H 	 2.128723 	 -6.823526 	 2.340556 
H 	 4.095528 	 2.172842 	 5.857735 
H 	 3.702463 	 3.667297 	 5.681289 
H 	 3.035449 	 7.307558 	 -0.406272 
H 	 2.209992 	 6.404844 	 -1.314855 
H 	 4.961962 	 -0.634139 	 0.968273 
H 	 5.619076 	 -0.008906 	 2.327025 
H 	 6.612560 	 4.518649 	 -6.017721 
H 	 5.251002 	 5.117316 	 -5.759723 
H 	 1.458440 	 4.288326 	 -3.779002 
H 	 0.923563 	 5.808721 	 -3.748379 
H 	 7.092666 	 3.995927 	 -1.925898 
H 	 7.156388 	 3.776309 	 -3.442627 
H 	 -2.574322 	 5.813374 	 -0.932898 
H 	 -1.683209 	 4.666369 	 -1.384622 
H 	 -1.615413 	 1.506193 	 5.250770 
H 	 -2.441524 	 1.962684 	 4.027074 
H 	 1.299803 	 -0.179872 	 2.937270 
H 	 1.189728 	 -1.498321 	 2.240211 
H 	 -3.388398 	 -3.130082 	 0.503502 
H 	 -2.042654 	 -3.089000 	 1.394949 
H 	 1.336183 	 2.449452 	 6.175520 
H 	 2.198219 	 1.128673 	 6.330657 
H 	 7.217937 	 -2.641177 	 7.004967 
H 	 -6.792300 	 -2.567951 	 -6.520780 
H 	 4.014523 	 -6.323914 	 2.597794 
H 	 3.940643 	 -5.636979 	 1.230510 
H 	 -3.088290 	 -0.360363 	 3.618530 
H 	 -3.593571 	 0.018111 	 2.244285 
H 	 -0.613958 	 6.058232 	 -2.387883 
H 	 -1.501267 	 7.247844 	 -2.848047 
H 	 6.320839 	 -4.289547 	 1.318504 
H 	 -7.172237 	 -4.907066 	 1.799122 
H 	 -6.469508 	 -2.556452 	 2.550904 
H 	 7.191440 	 -2.055937 	 1.738217 
H 	 -2.591727 	 3.179602 	 -3.402239 
H 	 -4.058343 	 2.561933 	 -4.615091 
H 	 6.751441 	 0.723483 	 -3.700836 
H 	 7.587306 	 1.296506 	 -4.883561 
H 	 -5.531170 	 -7.282276 	 -5.687696 
H 	 -7.021473 	 -6.871557 	 -5.726332 
H 	 0.350168 	 -3.230753 	 1.787893 
H 	 -0.377294 	 -2.408793 	 0.606419 
H 	 1.514172 	 1.698015 	 -2.827223 
H 	 2.530022 	 2.891211 	 -2.632861 
H 	 -0.102181 	 -1.215513 	 -3.260665 
H 	 -0.967186 	 -2.458845 	 -3.481178 
H 	 -1.683850 	 3.598755 	 2.070541 
H 	 -2.237703 	 4.708678 	 1.266896 
H 	 1.894125 	 -3.863308 	 4.026890 
H 	 1.086093 	 -4.602250 	 5.124717 
H 	 4.938396 	 6.427253 	 -1.030454 
H 	 6.436009 	 6.336515 	 -0.572186 
H 	 -0.070290 	 -5.566953 	 -0.627531 
H 	 0.359103 	 -5.089511 	 -1.981792 
H 	 0.416253 	 7.074174 	 -0.265482 
H 	 0.316352 	 -6.999352 	 1.065500 
H 	 -1.133016 	 1.671626 	 0.577517 
H 	 -1.545637 	 1.283542 	 2.015974 
H 	 -3.875223 	 -1.783166 	 -6.599518 
H 	 -4.071420 	 -3.157534 	 7.420830 
H 	 -0.091876 	 0.229273 	 6.588679 
H 	 -1.304874 	 -0.231701 	 -7.394878 
H 	 3.066315 	 -4.033185 	 -1.077261 
H 	 2.030419 	 -4.371483 	 0.069345 
H 	 -4.785959 	 -1.067546 	 0.266423 
H 	 -4.562325 	 -1.165809 	 -1.275781 
H 	 -5.713679 	 -5.412602 	 -0.292183 
H 	 -5.679027 	 -6.731063 	 0.503816 
H 	 -4.665475 	 1.506850 	 -6.924091 
H 	 -3.225541 	 1.269183 	 -6.326936 
H 	 -3.115071 	 -5.255117 	 -6.079439 
H 	 -3.188552 	 -6.561128 	 -6.985674 
H 	 6.569183 	 1.563274 	 -7.194079 
H 	 5.556988 	 2.739375 	 -7.007000 
H 	 5.416199 	 -4.817310 	 -0.451087 
H 	 6.813122 	 -5.512580 	 -0.712042 
H 	 -4.127950 	 4.766307 	 -2.838463 
H 	 -4.214319 	 6.378291 	 -2.645615 
H 	 -6.376331 	 -4.544056 	 -4.909014 
H 	 -5.538249 	 -3.254945 	 -4.546170 
H 	 3.252621 	 -1.718926 	 3.069285 
H 	 4.192707 	 -2.251679 	 4.183420 
H 	 -5.753933 	 3.118704 	 3.100212 
H 	 -7.209718 	 3.006048 	 3.593158 
H 	 -0.417354 	 6.805261 	 5.221316 
H 	 -1.052511 	 7.040276 	 6.579071 
H 	 -5.680557 	 4.276401 	 6.311449 
H 	 -6.321766 	 4.325701 	 -7.234404 
H 	 -5.714539 	 7.395331 	 6.564204 
H 	 -6.998715 	 6.903979 	 6.080879 
H 	 1.004791 	 2.002979 	 -5.506156 
H 	 -0.072567 	 2.951349 	 -6.087495 
H 	 1.441248 	 4.377300 	 -1.442617 
H 	 1.193029 	 5.072715 	 -0.151331 
H 	 5.525181 	 -2.370381 	 -5.948682 
H 	 4.223708 	 -3.168647 	 -5.237123 
H 	 -2.980329 	 6.057697 	 -6.867013 
H 	 -3.491379 	 6.187690 	 6.657941 
H 	 -4.695069 	 0.559656 	 -2.597317 
H 	 -3.277492 	 -0.014003 	 -2.626340 
H 	 4.336192 	 1.653894 	 1.655686 
H 	 2.917313 	 2.097353 	 2.220583 
H 	 -6.366851 	 0.969906 	 6.467117 
H 	 -6.455111 	 -0.123481 	 -7.391400 
H 	 -5.250036 	 -6.156133 	 3.047776 
H 	 -5.812530 	 -6.714175 	 4.345934 
H 	 6.231335 	 3.545546 	 5.067918 
H 	 7.257875 	 4.631958 	 5.209994 
H 	 3.771119 	 1.225780 	 -6.009723 
H 	 2.641299 	 0.236333 	 -5.796906 
H 	 -0.608329 	 -3.623625 	 5.807943 
H 	 -0.885697 	 -5.297287 	 5.945546 
H 	 2.118938 	 -0.200263 	 -2.145880 
H 	 2.270111 	 -0.156980 	 -3.626257 
H 	 2.473808 	 -2.530460 	 -3.572153 
H 	 2.590867 	 -4.033258 	 -3.978591 
H 	 3.154937 	 0.701200 	 -0.688259 
H 	 2.470427 	 -0.331264 	 0.179066 
H 	 -2.094655 	 5.599508 	 -4.171292 
H 	 -3.233127 	 4.640919 	 -4.794603 
H 	 0.642286 	 -1.529130 	 -4.967992 
H 	 1.593808 	 -2.440336 	 -5.751438 
H 	 1.259053 	 4.726675 	 5.374338 
H 	 2.137056 	 5.229290 	 6.599480 
H 	 -5.173408 	 6.170516 	 2.428793 
H 	 -6.540292 	 6.897131 	 2.144701 
H 	 5.019878 	 -1.233393 	 -2.635970 
H 	 5.139902 	 -1.367784 	 -4.098225 
H 	 2.073777 	 5.480738 	 -6.141350 
H 	 2.769795 	 6.748985 	 -6.343951 
H 	 -1.342982 	 -4.503570 	 -6.789137 
H 	 -1.227096 	 -3.362490 	 -5.765278 
H 	 2.424496 	 -2.571721 	 6.467884 
H 	 1.430099 	 -1.661115 	 5.625335 
H 	 -1.002826 	 0.813647 	 -5.509288 
H 	 -1.671844 	 -0.551205 	 -5.054311 
H 	 -5.957752 	 -0.478817 	 2.084261 
H 	 -5.512077 	 0.836906 	 1.340662 
H 	 -4.152455 	 -2.056016 	 4.666369 
H 	 -3.635629 	 -1.416696 	 6.057506 
H 	 -4.761857 	 5.460230 	 4.484418 
H 	 -3.883065 	 4.771395 	 3.450971 
H 	 -5.099774 	 -5.227592 	 -7.338183 
H 	 -5.687894 	 -4.802527 	 6.213577 
H 	 -3.764309 	 3.363011 	 7.064052 
H 	 -3.196960 	 3.463895 	 5.682711 
H 	 -6.177750 	 -1.029100 	 -4.721530 
H 	 -4.788810 	 -1.245076 	 -4.320141 
H 	 -1.094001 	 2.764716 	 -3.763280 
H 	 -5.062176 	 2.233385 	 -0.487672 
H 	 6.840742 	 -5.072754 	 6.326539 
H 	 6.092788 	 -6.445393 	 6.568949 
H 	 2.598721 	 -5.300737 	 -7.063636 
H 	 1.229323 	 -4.633429 	 7.287814 
H 	 0.410665 	 2.274923 	 3.811696 
H 	 0.485830 	 2.060128 	 2.302253 
H 	 -3.084426 	 -6.508728 	 -1.989101 
H 	 -2.925542 	 -5.860877 	 -3.309629 
H 	 -4.803169 	 3.331084 	 0.592620 
O 	 5.081568 	 -6.477796 	 -3.560770 
O 	 2.099275 	 4.752425 	 1.466138 
O 	 6.890011 	 -7.268805 	 2.941455 
O 	 2.926445 	 -6.503313 	 -5.657600 
O 	 5.946216 	 6.736258 	 6.377590 
O 	 4.045323 	 6.069609 	 4.313120 
O 	 -6.636129 	 4.206781 	 -5.026390 
O 	 6.050008 	 -0.336098 	 4.295307 
O 	 -6.680484 	 5.668055 	 -0.400461 
O 	 7.271093 	 -2.569016 	 5.120115 
O 	 0.597322 	 -5.928214 	 -4.060875 
O 	 -6.180747 	 0.531909 	 4.841899 
O 	 -0.424206 	 -2.190272 	 4.937818 
O 	 4.167141 	 0.489616 	 6.261048 
O 	 -2.975292 	 -6.160182 	 -0.205509 
O 	 3.974275 	 -6.049758 	 4.472738 
O 	 0.019574 	 5.564915 	 3.752540 
O 	 6.688581 	 2.920825 	 0.332383 
O 	 -5.518810 	 1.963432 	 -2.107691 
O 	 -1.933040 	 1.133398 	 -0.973878 
O 	 -5.104276 	 -4.479283 	 -1.740274 
O 	 -1.028446 	 -1.583130 	 -0.772858 
O 	 4.497203 	 5.464238 	 -3.812946 
O 	 6.781321 	 -5.424688 	 -5.367784 
O 	 -0.903544 	 4.198970 	 -7.252385 
O 	 -2.207646 	 -5.793333 	 3.863382 
O 	 -4.760944 	 -3.132801 	 3.207805 
O 	 -2.321855 	 -4.086380 	 -2.696327 
O 	 4.981474 	 -2.845692 	 0.945962 
O 	 4.115364 	 2.575589 	 -1.521837 
O 	 1.204451 	 -6.892549 	 2.735999 
O 	 4.435761 	 3.020791 	 5.570959 
O 	 2.905858 	 7.102706 	 -1.364578 
O 	 5.263776 	 0.207983 	 1.382774 
O 	 5.752859 	 4.736260 	 -6.492655 
O 	 1.555549 	 5.219044 	 -4.265842 
O 	 6.533050 	 3.958237 	 -2.718363 
O 	 -1.694979 	 5.429829 	 -0.769264 
O 	 -2.177186 	 2.277332 	 4.890854 
O 	 1.785050 	 -0.743161 	 2.300695 
O 	 -2.870079 	 -3.608772 	 1.191283 
O 	 1.241115 	 1.499749 	 6.376729 
O 	 7.337396 	 -2.204019 	 -6.997554 
O 	 3.679060 	 -6.451058 	 1.682888 
O 	 -2.792138 	 0.125129 	 2.844828 
O 	 -0.758742 	 6.668168 	 -3.197206 
O 	 6.839683 	 -4.585320 	 2.097168 
O 	 -6.971934 	 -1.779053 	 2.263811 
O 	 -4.241982 	 3.283496 	 -3.982883 
O 	 7.634422 	 0.671224 	 -4.130219 
O 	 -6.414028 	 7.262718 	 -5.895418 
O 	 -0.260662 	 -2.527464 	 1.604937 
O 	 1.597278 	 2.739276 	 -2.706567 
O 	 -0.720453 	 -1.627771 	 -3.910585 
O 	 -2.161043 	 4.433663 	 2.165228 
O 	 1.708613 	 -4.759850 	 4.368377 
O 	 5.520834 	 6.196702 	 -0.234088 
O 	 -0.090580 	 -4.745702 	 -1.169189 
O 	 -0.121456 	 -7.123957 	 0.186000 
O 	 -1.059524 	 1.983018 	 1.546685 
O 	 -3.462048 	 -2.419208 	 -7.244945 
O 	 -1.019686 	 -0.115472 	 6.572537 
O 	 2.987293 	 -4.424770 	 -0.186494 
O 	 -4.659609 	 -1.767439 	 -0.478280 
O 	 -6.176378 	 -5.929319 	 0.409981 
O 	 -3.778149 	 1.880005 	 -6.877943 
O 	 -3.692246 	 -5.745615 	 -6.700268 
O 	 5.727070 	 1.829242 	 -6.713569 
O 	 5.959675 	 -5.302642 	 -1.113511 
O 	 -4.362375 	 5.488260 	 -2.242487 
O 	 -5.498516 	 -4.267563 	 -4.631692 
O 	 3.739872 	 -2.523749 	 3.329963 
O 	 -6.537711 	 2.505597 	 3.028760 
O 	 -0.428041 	 -7.414041 	 5.926363 
O 	 -6.576300 	 4.398589 	 6.733444 
O 	 -6.075481 	 6.948424 	 5.764649 
O 	 0.066305 	 2.244252 	 -5.421228 
O 	 1.079564 	 5.199667 	 -1.114586 
O 	 4.572450 	 -2.354141 	 -5.664538 
O 	 -3.180588 	 6.716890 	 7.386554 
O 	 -4.204676 	 -0.278373 	 -2.782475 
O 	 3.727008 	 2.413258 	 1.726351 
O 	 -6.560681 	 0.835622 	 -7.421318 
O 	 -5.277685 	 -5.940665 	 4.027875 
O 	 6.730765 	 4.136438 	 4.467052 
O 	 2.994004 	 1.088221 	 -5.476750 
O 	 -0.448816 	 -4.492422 	 6.337884 
O 	 1.548559 	 0.010928 	 -2.962852 
O 	 2.727002 	 -3.401075 	 -3.261522 
O 	 2.856495 	 -0.250936 	 -0.734879 
O 	 -2.601116 	 5.385735 	 -5.013149 
O 	 1.577592 	 -1.594857 	 -5.301542 
O 	 2.090741 	 4.590238 	 5.865166 
O 	 -5.600591 	 6.848450 	 1.891740 
O 	 5.293854 	 -0.743235 	 -3.405177 
O 	 2.382196 	 5.993955 	 -6.891917 
O 	 -1.300339 	 -4.322962 	 -5.852698 
O 	 2.288190 	 -1.664109 	 6.120043 
O 	 -1.685175 	 0.149958 	 -5.737096 
O 	 -5.237207 	 -0.065108 	 1.585699 
O 	 -3.880668 	 -1.230889 	 5.093247 
O 	 -4.794513 	 4.897724 	 3.685704 
O 	 -5.942625 	 -4.785950 	 7.147519 
O 	 -3.751299 	 3.976327 	 6.324042 
O 	 -5.436725 	 -1.600265 	 -4.939554 
O 	 -1.629270 	 3.222248 	 -3.054703 
O 	 5.932463 	 -5.470025 	 6.381599 
O 	 2.202719 	 -4.440058 	 -7.372141 
O 	 1.057557 	 2.012332 	 3.169349 
O 	 -3.133623 	 -6.794256 	 -2.977073 
O 	 -4.642128 	 2.372986 	 0.413871 
K 	 5.214680 	 4.991564 	 2.038465 
