333
conformation = 31
H 	 4.912680 	 -7.514045 	 -3.420941 
H 	 4.793774 	 -6.008658 	 -2.678661 
H 	 1.343369 	 4.410242 	 2.146309 
H 	 2.470610 	 3.945417 	 1.322031 
H 	 6.749820 	 -7.469995 	 4.135507 
H 	 6.371698 	 -6.461024 	 3.031146 
H 	 2.215890 	 -6.315325 	 -4.803082 
H 	 3.735548 	 -6.471237 	 -4.990468 
H 	 5.836321 	 6.108287 	 7.144915 
H 	 5.276402 	 6.169702 	 5.674179 
H 	 3.087753 	 5.536155 	 4.719229 
H 	 3.662572 	 6.943669 	 4.454649 
H 	 -5.964790 	 3.796070 	 -4.531910 
H 	 -6.465850 	 5.210781 	 -5.094026 
H 	 5.301492 	 -0.298327 	 5.041959 
H 	 6.739415 	 0.101170 	 4.542008 
H 	 -6.144691 	 5.845233 	 -1.093973 
H 	 -6.603954 	 6.406509 	 0.201341 
H 	 6.803432 	 -1.976944 	 4.597231 
H 	 -6.850648 	 -2.824886 	 4.898508 
H 	 -0.078609 	 -6.541517 	 -3.733035 
H 	 -0.168681 	 -5.261970 	 -4.577968 
H 	 -5.494032 	 -0.038791 	 4.928836 
H 	 -6.331112 	 1.123933 	 4.195398 
H 	 -0.991985 	 -2.108910 	 4.106990 
H 	 -0.901812 	 -1.471970 	 5.603056 
H 	 3.363101 	 -0.369109 	 6.755853 
H 	 4.574129 	 0.629318 	 7.058306 
H 	 -2.096956 	 -6.599269 	 0.008644 
H 	 -3.049751 	 -5.445979 	 0.512357 
H 	 3.073315 	 -5.618043 	 4.523643 
H 	 4.575737 	 -5.749208 	 4.960795 
H 	 0.101804 	 6.490074 	 3.412369 
H 	 -0.935428 	 5.211272 	 3.254227 
H 	 7.200019 	 2.999104 	 1.012941 
H 	 6.226766 	 1.869505 	 0.463170 
H 	 -5.157858 	 2.364281 	 -3.074278 
H 	 -6.510613 	 1.578212 	 -2.494562 
H 	 -3.165900 	 1.323777 	 -0.729990 
H 	 -2.078348 	 1.718578 	 -1.813567 
H 	 -5.480363 	 -4.446865 	 -2.770770 
H 	 -5.183653 	 -3.519377 	 -1.486413 
H 	 -1.824367 	 -0.840781 	 -1.046246 
H 	 -1.740027 	 -2.416699 	 -1.175554 
H 	 4.631874 	 4.813720 	 -3.156995 
H 	 3.253521 	 5.353455 	 -3.840661 
H 	 6.081362 	 -5.687253 	 -6.254413 
H 	 6.086930 	 -5.776426 	 -4.717515 
H 	 -1.593762 	 4.182429 	 6.963238 
H 	 -1.857082 	 4.584375 	 -6.440330 
H 	 -2.349555 	 -6.674609 	 4.244672 
H 	 -3.138356 	 -5.729863 	 3.458571 
H 	 -4.324669 	 -3.145688 	 2.491257 
H 	 -5.077486 	 -4.162392 	 3.404626 
H 	 -1.966798 	 -4.476081 	 -1.848263 
H 	 -3.306652 	 -4.038499 	 -2.420406 
H 	 4.171179 	 -2.902140 	 0.368909 
H 	 4.387578 	 -2.807143 	 1.886065 
H 	 4.701060 	 2.444872 	 -1.904990 
H 	 4.110713 	 3.179474 	 -0.670152 
H 	 0.916917 	 -6.133609 	 3.444050 
H 	 1.796999 	 -6.897295 	 2.341074 
H 	 4.093183 	 1.982298 	 5.621156 
H 	 3.507954 	 3.470669 	 5.756770 
H 	 2.855948 	 7.188746 	 -0.394124 
H 	 2.348969 	 6.338659 	 -1.511621 
H 	 4.745104 	 -0.603452 	 1.070791 
H 	 5.402310 	 -0.157040 	 2.348288 
H 	 6.245939 	 4.349766 	 -6.079795 
H 	 4.815652 	 4.761981 	 -5.671626 
H 	 1.206684 	 4.303833 	 -3.943679 
H 	 0.534161 	 5.612132 	 -4.126802 
H 	 6.924629 	 3.648425 	 -1.907750 
H 	 7.052667 	 4.280373 	 -3.312878 
H 	 -2.799155 	 5.458639 	 -0.992042 
H 	 -1.579976 	 4.472404 	 -1.035489 
H 	 -2.368990 	 1.667259 	 5.650712 
H 	 -2.551655 	 1.617596 	 4.114541 
H 	 1.601291 	 0.332459 	 2.612633 
H 	 0.746314 	 -0.899361 	 2.224196 
H 	 -3.495625 	 -2.781948 	 0.561268 
H 	 -2.286327 	 -3.499579 	 1.335024 
H 	 1.195761 	 2.542380 	 6.442904 
H 	 1.772913 	 1.140092 	 6.676001 
H 	 7.278017 	 -2.079863 	 6.934254 
H 	 7.553562 	 -2.861404 	 -6.650874 
H 	 3.928888 	 -6.203195 	 2.342419 
H 	 3.348635 	 -5.832115 	 0.968982 
H 	 -2.893783 	 -0.334324 	 3.881373 
H 	 -3.655636 	 0.007892 	 2.571579 
H 	 -0.782809 	 6.435188 	 -2.162537 
H 	 -1.761530 	 7.116934 	 -2.966076 
H 	 5.930575 	 -4.057549 	 1.628184 
H 	 7.235930 	 -4.886620 	 1.203051 
H 	 -6.385024 	 -2.529027 	 2.300504 
H 	 6.941857 	 -2.343606 	 1.926414 
H 	 -2.722050 	 3.095435 	 -3.422103 
H 	 -4.284395 	 2.830623 	 -4.879784 
H 	 6.641603 	 -0.064605 	 -4.101839 
H 	 7.108064 	 1.193258 	 -4.854562 
H 	 -5.803122 	 -7.154991 	 -5.893038 
H 	 -7.335766 	 -7.197634 	 -5.839431 
H 	 -0.095934 	 -3.475363 	 1.417633 
H 	 -0.686422 	 -2.245798 	 0.762155 
H 	 1.120141 	 1.935712 	 -2.893954 
H 	 2.353686 	 2.433015 	 -1.981759 
H 	 -0.282631 	 -1.230977 	 -3.351548 
H 	 -1.414974 	 -2.246005 	 -3.281228 
H 	 -2.120197 	 3.516859 	 1.779833 
H 	 -2.138725 	 4.993721 	 1.225754 
H 	 1.877081 	 -3.910289 	 4.446992 
H 	 0.654915 	 -4.682527 	 5.011360 
H 	 5.079104 	 6.589512 	 -0.860195 
H 	 6.347698 	 5.813238 	 -0.658509 
H 	 -0.178112 	 -5.782831 	 -1.023336 
H 	 0.328700 	 -4.654576 	 -2.004506 
H 	 -0.668953 	 6.886158 	 0.042332 
H 	 0.036494 	 -7.146293 	 1.119059 
H 	 -1.504324 	 1.655890 	 0.588237 
H 	 -1.806054 	 1.203853 	 2.060623 
H 	 -3.952774 	 -2.163510 	 -6.543906 
H 	 -4.002958 	 -3.463419 	 -7.325115 
H 	 -0.451521 	 0.422895 	 6.535924 
H 	 -1.537281 	 -0.277738 	 -7.373530 
H 	 2.992674 	 -4.580848 	 -1.185546 
H 	 1.973730 	 -4.536841 	 -0.155084 
H 	 -5.294498 	 -1.353032 	 0.104787 
H 	 -4.777988 	 -1.376540 	 -1.324291 
H 	 -5.821731 	 -5.807410 	 -0.576282 
H 	 -5.812531 	 -6.358944 	 0.911767 
H 	 -4.881642 	 1.441934 	 -6.979671 
H 	 -3.282298 	 1.212831 	 -6.888050 
H 	 -3.091101 	 -5.376561 	 -6.219801 
H 	 -3.555748 	 -6.544553 	 -7.012156 
H 	 6.565796 	 1.500030 	 -6.910894 
H 	 5.511959 	 2.535564 	 -7.004979 
H 	 5.403558 	 -4.766549 	 -0.447850 
H 	 6.395994 	 -5.913046 	 -0.808145 
H 	 -4.849527 	 4.679060 	 -2.802808 
H 	 -4.525703 	 6.246376 	 -2.697400 
H 	 -6.555158 	 -4.687083 	 -4.906029 
H 	 -5.863317 	 -3.324789 	 -4.897587 
H 	 2.981564 	 -1.838993 	 3.282616 
H 	 4.487057 	 -2.243669 	 3.825704 
H 	 -6.087450 	 3.054254 	 3.021915 
H 	 7.341903 	 3.041505 	 3.477015 
H 	 -0.415999 	 6.479394 	 5.441498 
H 	 -0.773041 	 7.089505 	 6.774196 
H 	 -5.762369 	 4.263404 	 6.674441 
H 	 -6.968155 	 4.464765 	 -7.283458 
H 	 -5.714746 	 6.677343 	 6.531278 
H 	 -7.102428 	 6.470276 	 5.926297 
H 	 0.822706 	 2.006297 	 -5.431897 
H 	 -0.351763 	 2.804508 	 -6.064166 
H 	 0.649040 	 4.310894 	 -1.561431 
H 	 1.335873 	 4.753488 	 -0.185665 
H 	 5.192991 	 -2.432513 	 -6.385746 
H 	 4.633955 	 -3.128545 	 -4.999943 
H 	 -3.349588 	 6.328601 	 -6.540173 
H 	 -3.302161 	 5.796586 	 6.837099 
H 	 -5.026988 	 0.552419 	 -2.624806 
H 	 -3.622960 	 -0.114182 	 -2.601381 
H 	 4.003005 	 1.712534 	 1.688251 
H 	 3.015523 	 2.305452 	 2.737831 
H 	 -6.555383 	 0.737972 	 6.543747 
H 	 -6.915778 	 -0.053422 	 -7.061451 
H 	 -5.501084 	 -6.699172 	 3.410854 
H 	 -5.648918 	 -6.428051 	 4.855407 
H 	 5.629066 	 3.742204 	 4.862264 
H 	 6.982270 	 4.114244 	 5.322925 
H 	 3.708410 	 1.304089 	 -5.563637 
H 	 2.715038 	 0.028639 	 -5.716826 
H 	 -0.924780 	 -3.815214 	 5.793978 
H 	 -1.195962 	 -5.363883 	 5.736955 
H 	 1.730445 	 -0.243671 	 -2.266987 
H 	 2.029612 	 0.172833 	 -3.757750 
H 	 2.153638 	 -3.078908 	 -3.885126 
H 	 2.444149 	 -4.539577 	 -3.408339 
H 	 3.242528 	 0.616136 	 -0.810492 
H 	 2.226416 	 -0.164392 	 0.023402 
H 	 -1.993825 	 5.738495 	 -4.490992 
H 	 -3.209407 	 4.753727 	 -4.320197 
H 	 0.492842 	 -2.044336 	 -5.210412 
H 	 1.671475 	 -2.293621 	 -6.134037 
H 	 1.153821 	 4.886342 	 5.192098 
H 	 1.894368 	 5.139350 	 6.643281 
H 	 -5.603063 	 6.159126 	 2.514114 
H 	 -6.760989 	 7.189434 	 2.395165 
H 	 4.967653 	 -1.542729 	 -2.895662 
H 	 4.764989 	 -1.074126 	 -4.345367 
H 	 1.880156 	 5.554742 	 -6.029666 
H 	 2.326877 	 6.837169 	 -6.713749 
H 	 -0.862631 	 -4.231357 	 -6.598328 
H 	 -1.646039 	 -3.524301 	 -5.284320 
H 	 2.164885 	 -2.520877 	 6.585466 
H 	 1.156136 	 -1.761762 	 5.671306 
H 	 -1.211095 	 0.966478 	 -5.525905 
H 	 -1.621551 	 -0.407364 	 -5.014349 
H 	 -6.305820 	 -0.485855 	 1.683975 
H 	 -5.499738 	 0.821891 	 1.263070 
H 	 -4.420070 	 -1.980990 	 4.442280 
H 	 -3.955678 	 -1.725898 	 5.936612 
H 	 -4.894040 	 4.965347 	 4.609574 
H 	 -4.003688 	 4.785141 	 3.234024 
H 	 -5.369483 	 -5.127731 	 -7.399483 
H 	 -5.718621 	 -4.889070 	 6.096531 
H 	 -3.801931 	 3.315959 	 6.935405 
H 	 -3.602953 	 3.536932 	 5.452843 
H 	 -6.496545 	 -0.951127 	 -4.999439 
H 	 -5.260055 	 -1.076604 	 -4.063640 
H 	 -1.218302 	 3.391624 	 -3.541551 
H 	 -5.253726 	 2.483274 	 -0.506803 
H 	 6.512775 	 -5.016977 	 6.249854 
H 	 5.990847 	 -6.451983 	 6.425039 
H 	 2.398368 	 -5.078916 	 -6.915587 
H 	 1.275902 	 -4.859672 	 7.045070 
H 	 0.519180 	 1.912059 	 4.076164 
H 	 0.114362 	 1.920877 	 2.590058 
H 	 -3.425329 	 -6.305710 	 -2.078705 
H 	 -3.519774 	 -6.146670 	 -3.619306 
H 	 -4.444329 	 3.097074 	 0.661332 
O 	 4.918772 	 -6.532768 	 -3.506570 
O 	 1.840694 	 4.668929 	 1.313165 
O 	 6.672404 	 -7.372191 	 3.198440 
O 	 2.909555 	 -6.518877 	 -5.495825 
O 	 5.819520 	 6.649402 	 6.337605 
O 	 3.891731 	 5.989815 	 4.320374 
O 	 -6.688290 	 4.262950 	 -5.090248 
O 	 5.902881 	 -0.294806 	 4.278368 
O 	 -6.809048 	 5.661671 	 -0.359980 
O 	 7.130584 	 -2.685020 	 5.208751 
O 	 0.464758 	 -5.830434 	 -4.095983 
O 	 -6.342938 	 0.488633 	 4.928906 
O 	 -0.698562 	 -2.285559 	 5.003728 
O 	 3.961803 	 0.276745 	 6.374040 
O 	 -3.010502 	 -6.312058 	 0.019455 
O 	 3.838831 	 -6.206975 	 4.501031 
O 	 -0.195235 	 5.599907 	 3.687778 
O 	 6.436561 	 2.827607 	 0.405918 
O 	 -5.636913 	 1.918430 	 -2.222470 
O 	 -2.264187 	 1.078400 	 -1.016186 
O 	 -5.178794 	 -4.436722 	 -1.844311 
O 	 -1.185510 	 -1.619546 	 -0.957462 
O 	 4.247145 	 5.383922 	 -3.817422 
O 	 6.585960 	 -5.381045 	 -5.453839 
O 	 -1.190627 	 4.197965 	 -7.064876 
O 	 -2.281217 	 -5.772944 	 3.899105 
O 	 -4.970775 	 -3.173082 	 3.243994 
O 	 -2.387670 	 -4.194990 	 -2.696334 
O 	 4.899796 	 -2.801113 	 0.992346 
O 	 3.926715 	 2.491098 	 -1.343299 
O 	 0.951041 	 -6.900283 	 2.822787 
O 	 4.337166 	 2.935626 	 5.546742 
O 	 2.916017 	 7.138508 	 -1.362033 
O 	 5.201120 	 0.152141 	 1.471718 
O 	 5.419643 	 4.610793 	 -6.478321 
O 	 1.361249 	 5.156102 	 -4.273242 
O 	 6.351530 	 3.922741 	 -2.701179 
O 	 -1.919845 	 5.265235 	 -0.596216 
O 	 -2.265396 	 2.223796 	 4.873706 
O 	 1.700670 	 -0.629957 	 2.331452 
O 	 -3.217348 	 -3.572936 	 1.073546 
O 	 1.007340 	 1.585210 	 6.381231 
O 	 7.209510 	 -2.053203 	 -7.012526 
O 	 3.458089 	 -6.604185 	 1.572915 
O 	 -2.736830 	 0.003152 	 2.936940 
O 	 -0.920645 	 6.587807 	 -3.083604 
O 	 6.659730 	 -4.613078 	 1.953126 
O 	 -7.150694 	 -1.902004 	 2.239839 
O 	 -4.358443 	 3.220750 	 -3.988717 
O 	 7.393128 	 0.600135 	 -4.162558 
O 	 -6.547343 	 7.118249 	 -5.790865 
O 	 -0.470502 	 -2.549617 	 1.680180 
O 	 1.645957 	 2.670158 	 -2.666742 
O 	 -0.941808 	 -1.662091 	 -3.942074 
O 	 -2.405195 	 4.437724 	 2.068860 
O 	 1.467649 	 -4.767792 	 4.442874 
O 	 5.470253 	 6.013039 	 -0.244732 
O 	 -0.192427 	 -4.812646 	 -1.190728 
O 	 -0.230234 	 -7.168482 	 0.173333 
O 	 -1.316383 	 1.896348 	 1.511187 
O 	 -3.666837 	 -2.555659 	 -7.379543 
O 	 -1.157664 	 -0.253731 	 6.622105 
O 	 2.944466 	 -4.393592 	 -0.226248 
O 	 -4.822088 	 -1.909633 	 -0.504058 
O 	 -6.357200 	 -5.862180 	 0.220646 
O 	 -3.977325 	 1.901062 	 -6.926496 
O 	 -3.893712 	 -5.704675 	 -6.681165 
O 	 5.593473 	 1.552321 	 -6.840278 
O 	 5.720021 	 -5.323305 	 -1.209925 
O 	 -4.716474 	 5.438947 	 -2.173067 
O 	 -5.714620 	 -4.235554 	 -4.599372 
O 	 3.673254 	 -2.565245 	 3.353689 
O 	 -6.890791 	 2.496459 	 2.998122 
O 	 -0.439637 	 7.360258 	 5.900775 
O 	 -6.727605 	 4.331440 	 6.657991 
O 	 -6.241603 	 6.948936 	 5.761170 
O 	 -0.108733 	 2.238963 	 -5.274851 
O 	 0.978762 	 5.123646 	 -1.080729 
O 	 4.530122 	 -2.420091 	 -5.700680 
O 	 -3.264844 	 6.638490 	 7.389636 
O 	 -4.555224 	 -0.331647 	 -2.821893 
O 	 3.489864 	 2.532383 	 1.942324 
O 	 -6.578228 	 0.832862 	 -7.365975 
O 	 -5.499935 	 -5.928474 	 4.014412 
O 	 6.518473 	 4.037417 	 4.508068 
O 	 2.731988 	 0.988388 	 -5.517378 
O 	 -0.689565 	 -4.687469 	 6.178346 
O 	 1.310009 	 -0.032605 	 -3.130506 
O 	 2.682126 	 -3.596436 	 -3.202565 
O 	 2.792959 	 -0.249122 	 -0.739276 
O 	 -2.809399 	 5.426147 	 -4.903108 
O 	 1.430876 	 -1.815511 	 -5.295046 
O 	 1.841460 	 4.546061 	 5.802868 
O 	 -5.962226 	 6.891669 	 1.929915 
O 	 5.178499 	 -0.744938 	 -3.453169 
O 	 2.308298 	 5.885362 	 -6.890309 
O 	 -1.330001 	 -4.370909 	 -5.718590 
O 	 2.062466 	 -1.735209 	 6.029692 
O 	 -1.870330 	 0.223596 	 -5.717765 
O 	 -5.385403 	 -0.075948 	 1.616301 
O 	 -4.164444 	 -1.270643 	 5.105998 
O 	 -4.935860 	 4.830422 	 3.651223 
O 	 -6.090374 	 -4.833907 	 6.973937 
O 	 -3.880753 	 4.060243 	 6.233739 
O 	 -5.731349 	 -1.562041 	 -4.828397 
O 	 -1.878750 	 3.124235 	 -2.888166 
O 	 5.692733 	 -5.523494 	 6.377785 
O 	 2.040792 	 -4.401921 	 7.382394 
O 	 0.903209 	 1.959691 	 3.151379 
O 	 -3.349191 	 -6.798373 	 -2.921585 
O 	 -4.697323 	 2.254575 	 0.296675 
K 	 5.080722 	 4.974470 	 2.004433 
