333
conformation = 43
H 	 4.967221 	 -7.431869 	 -3.350715 
H 	 4.909611 	 -6.199154 	 -2.569620 
H 	 1.390747 	 4.473988 	 2.148311 
H 	 2.614860 	 4.021446 	 1.226429 
H 	 6.702439 	 -7.445666 	 4.058366 
H 	 6.541297 	 -6.345868 	 3.007402 
H 	 2.217545 	 -6.233020 	 -4.961714 
H 	 3.731319 	 -6.568361 	 -4.984862 
H 	 5.852480 	 6.142511 	 7.146766 
H 	 5.375257 	 6.193571 	 5.711116 
H 	 3.183114 	 5.599107 	 4.654771 
H 	 3.744466 	 7.020830 	 4.380618 
H 	 -5.845642 	 3.957970 	 -4.565169 
H 	 -6.466300 	 5.223937 	 -5.091258 
H 	 5.359720 	 -0.136543 	 5.049795 
H 	 6.905356 	 -0.048883 	 4.511587 
H 	 -6.068059 	 5.771184 	 -1.093302 
H 	 -6.476228 	 6.283524 	 0.340925 
H 	 6.854702 	 -1.824767 	 4.646488 
H 	 -6.789783 	 -2.779716 	 4.900969 
H 	 -0.032622 	 -6.580954 	 -3.807470 
H 	 -0.064325 	 -5.306659 	 -4.642123 
H 	 -5.432366 	 -0.007082 	 4.880183 
H 	 -6.307006 	 1.284134 	 4.243392 
H 	 -0.884070 	 -2.103624 	 4.098244 
H 	 -0.876298 	 -1.452025 	 5.508267 
H 	 3.452094 	 -0.316162 	 6.706659 
H 	 4.750228 	 0.684725 	 6.976680 
H 	 -2.029808 	 -6.485008 	 0.006939 
H 	 -2.955555 	 -5.320010 	 0.306960 
H 	 3.139056 	 -5.600177 	 4.728186 
H 	 4.656070 	 -5.660483 	 4.895593 
H 	 0.224168 	 6.439807 	 3.309989 
H 	 -0.928470 	 5.420962 	 3.190262 
H 	 7.313691 	 3.089276 	 0.931937 
H 	 6.498840 	 1.926995 	 0.471836 
H 	 -5.109606 	 2.497474 	 -2.958921 
H 	 -6.430357 	 1.782313 	 -2.502334 
H 	 -2.989705 	 1.449250 	 -0.676157 
H 	 -1.882146 	 1.688619 	 -1.742546 
H 	 -5.477062 	 -4.397394 	 -2.747343 
H 	 -5.383511 	 -3.530522 	 -1.438234 
H 	 -1.598485 	 -0.732109 	 -1.018828 
H 	 -1.701011 	 -2.257738 	 -1.179346 
H 	 4.697281 	 4.767147 	 -3.261406 
H 	 3.376580 	 5.352422 	 -3.779678 
H 	 6.130513 	 -5.393889 	 -6.228740 
H 	 6.131030 	 -5.720820 	 -4.699344 
H 	 -1.636642 	 4.040819 	 7.013135 
H 	 -1.721430 	 4.607991 	 -6.545897 
H 	 -2.284535 	 -6.640934 	 4.342026 
H 	 -3.099846 	 -5.606593 	 3.487907 
H 	 -4.132095 	 -3.173206 	 2.529421 
H 	 -4.987102 	 -4.110493 	 3.423519 
H 	 -1.734538 	 -4.412811 	 -1.921999 
H 	 -3.265294 	 -4.103093 	 -2.351297 
H 	 4.172830 	 -2.899232 	 0.412950 
H 	 4.569563 	 -2.849458 	 1.868496 
H 	 4.835133 	 2.409688 	 -1.894242 
H 	 4.216566 	 3.176580 	 -0.702811 
H 	 1.085391 	 -6.098425 	 3.380689 
H 	 1.985695 	 -6.722255 	 2.412997 
H 	 4.111039 	 2.086005 	 5.813257 
H 	 3.637559 	 3.591066 	 5.837898 
H 	 3.043036 	 7.151613 	 -0.394975 
H 	 2.323116 	 6.384853 	 -1.520539 
H 	 4.764109 	 -0.497816 	 0.967019 
H 	 5.516634 	 -0.117325 	 2.362071 
H 	 6.402637 	 4.394062 	 -6.087839 
H 	 5.074601 	 4.952948 	 -5.628468 
H 	 1.416756 	 4.370419 	 -3.798544 
H 	 0.637599 	 5.713389 	 -4.018525 
H 	 7.012565 	 3.645775 	 -1.946371 
H 	 7.045879 	 4.232465 	 -3.457792 
H 	 -2.712133 	 5.521757 	 -0.938000 
H 	 -1.657535 	 4.541593 	 -1.160252 
H 	 -1.975717 	 1.503227 	 5.497928 
H 	 -2.414780 	 1.741151 	 4.070737 
H 	 1.510639 	 0.174672 	 2.851544 
H 	 0.904682 	 -1.115746 	 2.162071 
H 	 -3.320632 	 -2.830468 	 0.542757 
H 	 -2.160467 	 -3.357743 	 1.450932 
H 	 1.323373 	 2.506334 	 6.347041 
H 	 1.964071 	 1.171242 	 6.614283 
H 	 7.320673 	 -2.352107 	 6.901002 
H 	 -7.210512 	 -2.797054 	 -6.540630 
H 	 3.999775 	 -6.328698 	 2.447608 
H 	 3.520139 	 -5.718671 	 1.042158 
H 	 -2.987522 	 -0.288051 	 3.810453 
H 	 -3.576367 	 0.034585 	 2.457403 
H 	 -0.582032 	 6.204889 	 -2.281441 
H 	 -1.646904 	 7.172428 	 -2.994200 
H 	 6.135917 	 -4.069683 	 1.353334 
H 	 7.516157 	 -4.905934 	 1.423987 
H 	 -6.412380 	 -2.618424 	 2.305636 
H 	 7.081909 	 -2.260099 	 1.879049 
H 	 -2.676185 	 3.116332 	 -3.363523 
H 	 -4.238754 	 2.887689 	 -4.880676 
H 	 6.576472 	 0.209298 	 -3.955959 
H 	 7.397612 	 1.300542 	 -4.857398 
H 	 -5.692803 	 -7.129491 	 -5.891800 
H 	 -7.226466 	 -7.063706 	 -5.962883 
H 	 0.127121 	 -3.366243 	 1.727623 
H 	 -0.436218 	 -2.113724 	 0.734271 
H 	 1.333424 	 1.820053 	 -2.882454 
H 	 2.441969 	 2.514408 	 -2.075529 
H 	 -0.092971 	 -1.134103 	 -3.409767 
H 	 -1.271953 	 -2.327024 	 -3.362972 
H 	 -1.857350 	 3.568013 	 1.911695 
H 	 -2.132496 	 5.041450 	 1.259117 
H 	 1.839407 	 -3.844962 	 4.241938 
H 	 0.751279 	 -4.693531 	 5.032847 
H 	 5.016102 	 6.640969 	 -0.825364 
H 	 6.415739 	 5.902074 	 -0.608402 
H 	 0.016508 	 -5.699846 	 -0.845423 
H 	 0.391541 	 -4.741962 	 -2.024969 
H 	 -0.360171 	 6.840645 	 -0.034595 
H 	 0.131910 	 -7.060351 	 1.135207 
H 	 -1.444815 	 1.613979 	 0.638224 
H 	 -1.683905 	 1.310358 	 2.141752 
H 	 -3.863373 	 -2.001907 	 -6.540640 
H 	 -4.048515 	 -3.325033 	 -7.446932 
H 	 -0.366110 	 0.432559 	 6.631875 
H 	 -1.336461 	 -0.176908 	 -7.296431 
H 	 3.084934 	 -4.293777 	 -1.162610 
H 	 2.043941 	 -4.399622 	 0.037518 
H 	 -5.268770 	 -1.308308 	 0.161153 
H 	 -4.853709 	 -1.317625 	 -1.329542 
H 	 -5.711064 	 -5.853758 	 -0.513939 
H 	 -5.739936 	 -6.416092 	 0.909164 
H 	 -4.780221 	 1.527211 	 -6.890710 
H 	 -3.297799 	 1.122537 	 -6.769416 
H 	 -3.122576 	 -5.222331 	 -6.155194 
H 	 -3.529541 	 -6.588534 	 -6.946304 
H 	 6.622967 	 1.441330 	 -6.953269 
H 	 5.495975 	 2.641470 	 -6.949291 
H 	 5.490520 	 -4.710009 	 -0.435913 
H 	 6.592192 	 -5.753210 	 -0.795563 
H 	 -4.470374 	 4.693797 	 -2.816513 
H 	 -4.428227 	 6.301465 	 -2.741170 
H 	 -6.446247 	 -4.644007 	 -4.879054 
H 	 -5.661174 	 -3.236656 	 -4.766321 
H 	 3.189888 	 -1.723346 	 3.266475 
H 	 4.488424 	 -2.135094 	 3.881377 
H 	 -5.881829 	 2.993275 	 3.088620 
H 	 7.548290 	 3.101188 	 3.562047 
H 	 -0.377611 	 6.573469 	 5.365935 
H 	 -0.823420 	 7.185425 	 6.777296 
H 	 -5.660267 	 4.312812 	 6.576063 
H 	 -6.795443 	 4.504528 	 -7.255171 
H 	 -5.682779 	 6.802009 	 6.594639 
H 	 -7.048637 	 6.713100 	 6.068709 
H 	 0.896498 	 2.083720 	 -5.471522 
H 	 -0.333776 	 2.774934 	 -6.122508 
H 	 0.832679 	 4.444018 	 -1.661178 
H 	 1.310127 	 4.838636 	 -0.189242 
H 	 5.390543 	 -2.483222 	 -6.237111 
H 	 4.617668 	 -3.138802 	 -5.019387 
H 	 -3.219415 	 6.165886 	 -6.674257 
H 	 -3.383690 	 5.982502 	 6.735121 
H 	 -4.935887 	 0.570007 	 -2.573583 
H 	 -3.509020 	 -0.026973 	 -2.558418 
H 	 4.151976 	 1.724238 	 1.642384 
H 	 2.978654 	 2.303761 	 2.593070 
H 	 -6.390614 	 0.851576 	 6.533233 
H 	 -6.764994 	 -0.069080 	 -7.238056 
H 	 -5.308310 	 -6.513359 	 3.205813 
H 	 -5.865331 	 -6.514991 	 4.677589 
H 	 5.776506 	 3.902100 	 4.984405 
H 	 7.268768 	 4.374573 	 5.213272 
H 	 3.773947 	 1.309830 	 -5.816441 
H 	 2.806519 	 0.098615 	 -5.733508 
H 	 -0.782568 	 -3.731269 	 5.847690 
H 	 -1.120234 	 -5.284774 	 5.791137 
H 	 1.893797 	 -0.281647 	 -2.261983 
H 	 2.263248 	 0.201119 	 -3.563381 
H 	 2.345713 	 -2.829842 	 -3.856899 
H 	 2.582125 	 -4.393169 	 -3.631558 
H 	 3.189173 	 0.702913 	 -0.742289 
H 	 2.227993 	 -0.161320 	 -0.026245 
H 	 -1.957945 	 5.829902 	 -4.386795 
H 	 -3.039901 	 4.645917 	 -4.437345 
H 	 0.508412 	 -1.726939 	 -5.113974 
H 	 1.728607 	 -2.379969 	 -5.947043 
H 	 1.281622 	 4.954318 	 5.229092 
H 	 1.990263 	 5.233495 	 6.645731 
H 	 -5.513906 	 6.249258 	 2.617553 
H 	 -6.653219 	 7.383836 	 2.299595 
H 	 4.983117 	 -1.425417 	 -2.834130 
H 	 4.982123 	 -1.039904 	 -4.327466 
H 	 1.939195 	 5.492936 	 -6.116822 
H 	 2.430987 	 6.856173 	 -6.540014 
H 	 -1.036921 	 -4.260343 	 -6.705456 
H 	 -1.457170 	 -3.382755 	 -5.462717 
H 	 2.203530 	 -2.484580 	 6.573422 
H 	 1.264746 	 -1.696401 	 5.648126 
H 	 -1.155270 	 1.005876 	 -5.605510 
H 	 -1.517959 	 -0.437053 	 -5.050520 
H 	 -6.196277 	 -0.544550 	 1.785941 
H 	 -5.402134 	 0.808150 	 1.237269 
H 	 -4.324993 	 -1.943305 	 4.505772 
H 	 -3.940299 	 -1.643591 	 5.996538 
H 	 -4.706902 	 5.179454 	 4.573617 
H 	 -3.939089 	 4.798809 	 3.361898 
H 	 -5.213490 	 -5.162595 	 -7.375790 
H 	 -5.679349 	 -4.743111 	 6.142682 
H 	 -3.897718 	 3.343788 	 6.962370 
H 	 -3.501913 	 3.539081 	 5.475109 
H 	 -6.399614 	 -1.006247 	 -4.858531 
H 	 -5.143230 	 -1.238130 	 -4.047201 
H 	 -1.132304 	 3.427426 	 -3.648975 
H 	 -5.119132 	 2.381645 	 -0.529959 
H 	 6.569497 	 -4.886294 	 6.303607 
H 	 6.095435 	 -6.421587 	 6.386662 
H 	 2.451841 	 -5.152793 	 -6.948257 
H 	 1.280631 	 -4.599517 	 6.991000 
H 	 0.475979 	 2.020816 	 3.977056 
H 	 0.366723 	 2.007412 	 2.418324 
H 	 -3.390745 	 -6.291100 	 -2.131476 
H 	 -3.381423 	 -5.971967 	 -3.532948 
H 	 -4.487568 	 3.190990 	 0.710636 
O 	 5.008996 	 -6.466319 	 -3.532811 
O 	 1.953960 	 4.728117 	 1.356258 
O 	 6.783343 	 -7.316090 	 3.114787 
O 	 2.957282 	 -6.486607 	 -5.548043 
O 	 5.880517 	 6.722403 	 6.349915 
O 	 3.968074 	 6.042081 	 4.319248 
O 	 -6.637264 	 4.257391 	 -5.073723 
O 	 5.984916 	 -0.277300 	 4.285548 
O 	 -6.737456 	 5.703204 	 -0.368517 
O 	 7.200450 	 -2.602839 	 5.166736 
O 	 0.533139 	 -5.842245 	 -4.084708 
O 	 -6.254463 	 0.525514 	 4.902834 
O 	 -0.580234 	 -2.234604 	 4.984960 
O 	 4.052130 	 0.380194 	 6.331453 
O 	 -2.966033 	 -6.233760 	 -0.045922 
O 	 3.904834 	 -6.130741 	 4.496123 
O 	 -0.097420 	 5.614283 	 3.714503 
O 	 6.539140 	 2.893479 	 0.382909 
O 	 -5.559696 	 1.942116 	 -2.180573 
O 	 -2.122763 	 1.122174 	 -1.004355 
O 	 -5.119750 	 -4.427138 	 -1.800726 
O 	 -1.109018 	 -1.579232 	 -0.901081 
O 	 4.356874 	 5.433465 	 -3.805520 
O 	 6.681930 	 -5.368912 	 -5.419615 
O 	 -1.064201 	 4.231792 	 -7.121341 
O 	 -2.231143 	 -5.752543 	 3.887155 
O 	 -4.879728 	 -3.115450 	 3.228068 
O 	 -2.334978 	 -4.162784 	 -2.699635 
O 	 4.956880 	 -2.793584 	 0.986347 
O 	 4.003793 	 2.553561 	 -1.413544 
O 	 1.064182 	 -6.861210 	 2.810104 
O 	 4.409144 	 2.973784 	 5.549592 
O 	 2.931037 	 7.146037 	 -1.366252 
O 	 5.253310 	 0.184984 	 1.443742 
O 	 5.553629 	 4.675345 	 -6.497332 
O 	 1.449352 	 5.213159 	 -4.276243 
O 	 6.444099 	 3.975233 	 -2.704133 
O 	 -1.793454 	 5.354335 	 -0.651530 
O 	 -2.217189 	 2.287765 	 4.882193 
O 	 1.758899 	 -0.636242 	 2.318596 
O 	 -3.077995 	 -3.565694 	 1.102371 
O 	 1.109971 	 1.578259 	 6.382093 
O 	 7.289283 	 -2.065372 	 -7.010229 
O 	 3.560168 	 -6.515849 	 1.600585 
O 	 -2.713326 	 0.068856 	 2.902520 
O 	 -0.834581 	 6.636603 	 -3.116574 
O 	 6.733696 	 -4.566388 	 1.997675 
O 	 -7.043401 	 -1.828924 	 2.249156 
O 	 -4.289506 	 3.263119 	 -3.989582 
O 	 7.498522 	 0.646966 	 -4.160595 
O 	 -6.476810 	 7.192879 	 -5.815875 
O 	 -0.378645 	 -2.515580 	 1.639428 
O 	 1.675808 	 2.702619 	 -2.682763 
O 	 -0.833337 	 -1.620279 	 -3.939102 
O 	 -2.293483 	 4.453693 	 2.092504 
O 	 1.592643 	 -4.747773 	 4.420198 
O 	 5.526697 	 6.098886 	 -0.236496 
O 	 -0.148927 	 -4.764331 	 -1.186994 
O 	 -0.156967 	 -7.119173 	 0.160839 
O 	 -1.199772 	 1.959828 	 1.514985 
O 	 -3.558988 	 -2.486806 	 -7.342410 
O 	 -1.084094 	 -0.198074 	 6.604359 
O 	 3.001959 	 -4.390429 	 -0.205957 
O 	 -4.730590 	 -1.822196 	 -0.497654 
O 	 -6.268031 	 -5.853802 	 0.277473 
O 	 -3.866642 	 1.931240 	 -6.927228 
O 	 -3.790242 	 -5.690582 	 -6.693655 
O 	 5.667395 	 1.676209 	 -6.809696 
O 	 5.821527 	 -5.290664 	 -1.184182 
O 	 -4.584578 	 5.478397 	 -2.192658 
O 	 -5.615222 	 -4.206980 	 -4.624819 
O 	 3.722372 	 -2.529811 	 3.336484 
O 	 -6.758158 	 2.528887 	 3.002755 
O 	 -0.394742 	 -7.474807 	 5.904987 
O 	 -6.650909 	 4.389027 	 6.671008 
O 	 -6.154078 	 6.975195 	 5.757331 
O 	 -0.013453 	 2.263090 	 -5.314862 
O 	 1.056623 	 5.185341 	 -1.073874 
O 	 4.561963 	 -2.367427 	 -5.690599 
O 	 -3.205031 	 6.704643 	 7.383390 
O 	 -4.419685 	 -0.276114 	 -2.820460 
O 	 3.598451 	 2.522474 	 1.874951 
O 	 -6.536098 	 0.865763 	 -7.397099 
O 	 -5.403712 	 -5.909425 	 4.025305 
O 	 6.613886 	 4.081891 	 4.499901 
O 	 2.844879 	 1.054595 	 -5.501463 
O 	 -0.576432 	 -4.600790 	 6.221808 
O 	 1.417671 	 0.013354 	 -3.085421 
O 	 2.721786 	 -3.505633 	 -3.219276 
O 	 2.848544 	 -0.223187 	 -0.750556 
O 	 -2.715763 	 5.444821 	 -4.923803 
O 	 1.488375 	 -1.705248 	 -5.283065 
O 	 1.960102 	 4.590669 	 5.827678 
O 	 -5.810071 	 6.898419 	 1.892320 
O 	 5.258879 	 -0.719981 	 -3.438120 
O 	 2.367961 	 5.949723 	 -6.901767 
O 	 -1.287840 	 -4.326923 	 -5.754622 
O 	 2.165044 	 -1.679940 	 6.049967 
O 	 -1.774508 	 0.226599 	 -5.718565 
O 	 -5.321806 	 -0.044327 	 1.605578 
O 	 -4.036301 	 -1.233989 	 5.107565 
O 	 -4.869752 	 4.875469 	 3.666483 
O 	 -6.008112 	 -4.803321 	 7.032575 
O 	 -3.801680 	 4.063482 	 6.256198 
O 	 -5.608597 	 -1.545819 	 -4.865098 
O 	 -1.766842 	 3.185285 	 -2.957557 
O 	 5.801549 	 -5.495977 	 6.374172 
O 	 2.129661 	 -4.402219 	 -7.475871 
O 	 0.974461 	 2.006812 	 3.152487 
O 	 -3.238378 	 -6.752063 	 -2.941599 
O 	 -4.655409 	 2.320546 	 0.336676 
K 	 5.154926 	 5.007741 	 2.005591 
