333
conformation = 26
H 	 4.928237 	 -7.502924 	 -3.404851 
H 	 4.865343 	 -5.985300 	 -2.693169 
H 	 1.366254 	 4.442415 	 2.132306 
H 	 2.505797 	 3.891156 	 1.354542 
H 	 6.843185 	 -7.462141 	 4.182303 
H 	 6.395080 	 -6.447742 	 3.017267 
H 	 2.293056 	 -6.356120 	 -4.802297 
H 	 3.792780 	 -6.426784 	 -4.981565 
H 	 5.866228 	 6.090684 	 7.145503 
H 	 5.294042 	 6.206108 	 5.680322 
H 	 3.210436 	 5.514080 	 4.732309 
H 	 3.762004 	 6.971515 	 4.457337 
H 	 -5.939341 	 3.791983 	 -4.594220 
H 	 -6.395492 	 5.231163 	 -5.104402 
H 	 5.355772 	 -0.287945 	 5.073863 
H 	 6.748220 	 0.168811 	 4.582828 
H 	 -6.117310 	 5.811610 	 -1.093026 
H 	 -6.599845 	 6.427437 	 0.201325 
H 	 6.873286 	 -2.011117 	 4.569600 
H 	 -6.827569 	 -2.813521 	 4.874873 
H 	 0.012120 	 -6.540557 	 -3.689488 
H 	 -0.114303 	 -5.223038 	 -4.570178 
H 	 -5.474992 	 -0.031510 	 4.913108 
H 	 -6.248110 	 1.102970 	 4.156562 
H 	 -0.953521 	 -2.091948 	 4.123787 
H 	 -0.876236 	 -1.505880 	 5.598907 
H 	 3.391691 	 -0.424342 	 6.769574 
H 	 4.565611 	 0.608711 	 7.127040 
H 	 -2.021526 	 -6.595905 	 0.046643 
H 	 -3.005367 	 -5.500695 	 0.541650 
H 	 3.130470 	 -5.635126 	 4.476193 
H 	 4.592903 	 -5.784352 	 5.026336 
H 	 0.100508 	 6.497518 	 3.391920 
H 	 -0.918738 	 5.169010 	 3.210273 
H 	 7.212292 	 2.918139 	 1.028383 
H 	 6.230675 	 1.892851 	 0.510526 
H 	 -5.121282 	 2.340865 	 -3.051516 
H 	 -6.423191 	 1.566385 	 -2.504661 
H 	 -3.157111 	 1.308947 	 -0.740334 
H 	 -2.066993 	 1.695463 	 -1.750457 
H 	 -5.431105 	 -4.393275 	 -2.817777 
H 	 -5.084959 	 -3.503723 	 -1.493552 
H 	 -1.775028 	 -0.875923 	 -1.032360 
H 	 -1.631141 	 -2.393224 	 -1.163151 
H 	 4.630724 	 4.861217 	 -3.125320 
H 	 3.315053 	 5.346783 	 -3.815255 
H 	 6.169189 	 -5.705002 	 -6.252416 
H 	 6.151840 	 -5.769690 	 -4.708183 
H 	 -1.509109 	 4.238118 	 6.945792 
H 	 -1.783728 	 4.565711 	 -6.432794 
H 	 -2.255416 	 -6.716186 	 4.246828 
H 	 -3.096887 	 -5.718476 	 3.453896 
H 	 -4.287868 	 -3.108240 	 2.461826 
H 	 -5.077993 	 -4.165509 	 3.446446 
H 	 -1.917501 	 -4.513991 	 -1.846733 
H 	 -3.287145 	 -4.013417 	 -2.457830 
H 	 4.234752 	 -2.913293 	 0.331342 
H 	 4.412619 	 -2.747579 	 1.822782 
H 	 4.760400 	 2.507055 	 -1.917362 
H 	 4.193726 	 3.177476 	 -0.687622 
H 	 0.966486 	 -6.157969 	 3.404938 
H 	 1.848533 	 -6.935695 	 2.333705 
H 	 4.153596 	 1.994305 	 5.547734 
H 	 3.515484 	 3.449651 	 5.722004 
H 	 2.878251 	 7.249154 	 -0.388131 
H 	 2.426331 	 6.356768 	 -1.536076 
H 	 4.828923 	 -0.640712 	 1.108413 
H 	 5.460896 	 -0.164786 	 2.417149 
H 	 6.308263 	 4.349558 	 -6.043020 
H 	 4.797169 	 4.742725 	 -5.702844 
H 	 1.238300 	 4.231121 	 -3.982459 
H 	 0.550632 	 5.646659 	 -4.140503 
H 	 6.911775 	 3.680777 	 -1.885026 
H 	 7.090345 	 4.293366 	 -3.302539 
H 	 -2.740273 	 5.425382 	 -1.013536 
H 	 -1.502624 	 4.485929 	 -1.006804 
H 	 -2.417041 	 1.723812 	 5.739927 
H 	 -2.513582 	 1.634935 	 4.139103 
H 	 1.720166 	 0.371357 	 2.538876 
H 	 0.817017 	 -0.860997 	 2.245801 
H 	 -3.456737 	 -2.786349 	 0.566078 
H 	 -2.229537 	 -3.455810 	 1.304667 
H 	 1.220763 	 2.534519 	 6.466994 
H 	 1.851538 	 1.124036 	 6.712868 
H 	 7.343630 	 -2.053636 	 6.887842 
H 	 7.608511 	 -2.893794 	 -6.741616 
H 	 3.951300 	 -6.181339 	 2.298700 
H 	 3.382531 	 -5.871518 	 0.939124 
H 	 -2.779384 	 -0.360971 	 3.886377 
H 	 -3.573392 	 0.008781 	 2.592144 
H 	 -0.717511 	 6.480228 	 -2.104733 
H 	 -1.718246 	 7.112746 	 -3.014120 
H 	 5.939323 	 -4.052207 	 1.659596 
H 	 7.227547 	 -4.856203 	 1.078859 
H 	 -6.337343 	 -2.529913 	 2.328816 
H 	 7.016337 	 -2.373051 	 1.929160 
H 	 -2.677883 	 3.102457 	 -3.400474 
H 	 -4.220224 	 2.813957 	 -4.866105 
H 	 6.701928 	 -0.135500 	 -4.093902 
H 	 7.069926 	 1.189310 	 -4.856002 
H 	 -5.774635 	 -7.144971 	 -5.887598 
H 	 7.605981 	 -7.199859 	 -5.777024 
H 	 -0.096659 	 -3.410036 	 1.357720 
H 	 -0.696035 	 -2.249931 	 0.773534 
H 	 1.132724 	 1.922285 	 -2.872790 
H 	 2.381615 	 2.420771 	 -2.013026 
H 	 -0.211062 	 -1.197443 	 -3.331116 
H 	 -1.407975 	 -2.228371 	 -3.283063 
H 	 -2.124794 	 3.520876 	 1.764713 
H 	 -2.103392 	 4.969395 	 1.216887 
H 	 1.966592 	 -3.911332 	 4.508297 
H 	 0.666259 	 -4.664159 	 5.062261 
H 	 5.107299 	 6.612515 	 -0.892679 
H 	 6.409113 	 5.801808 	 -0.630152 
H 	 -0.155390 	 -5.800649 	 -1.062902 
H 	 0.374614 	 -4.627333 	 -2.023034 
H 	 -0.669550 	 6.875644 	 0.067125 
H 	 0.091407 	 -7.142631 	 1.156033 
H 	 -1.429282 	 1.683246 	 0.569059 
H 	 -1.790399 	 1.170136 	 2.028274 
H 	 -3.964386 	 -2.201301 	 -6.519735 
H 	 -3.931479 	 -3.490919 	 -7.259440 
H 	 -0.437201 	 0.410328 	 6.556983 
H 	 -1.496458 	 -0.276872 	 -7.343604 
H 	 3.065166 	 -4.638434 	 -1.165410 
H 	 2.003231 	 -4.542670 	 -0.206940 
H 	 -5.232014 	 -1.311835 	 0.147656 
H 	 -4.658811 	 -1.376159 	 -1.320258 
H 	 -5.773358 	 -5.711633 	 -0.602135 
H 	 -5.777435 	 -6.329312 	 0.861750 
H 	 -4.819786 	 1.430653 	 -7.022635 
H 	 -3.201759 	 1.244148 	 -6.884894 
H 	 -3.027645 	 -5.373602 	 -6.246360 
H 	 -3.511842 	 -6.516699 	 -7.095826 
H 	 6.632974 	 1.486496 	 -6.933837 
H 	 5.529802 	 2.499192 	 -7.028408 
H 	 5.447078 	 -4.774844 	 -0.445268 
H 	 6.399614 	 -5.933156 	 -0.815256 
H 	 -4.875933 	 4.714013 	 -2.829174 
H 	 -4.464472 	 6.247886 	 -2.723766 
H 	 -6.480358 	 -4.671124 	 -4.903662 
H 	 -5.844581 	 -3.317963 	 -4.887203 
H 	 3.038844 	 -1.893596 	 3.283817 
H 	 4.542701 	 -2.236956 	 3.843445 
H 	 -6.078984 	 3.125602 	 3.007940 
H 	 7.366701 	 3.022773 	 3.478292 
H 	 -0.353449 	 6.477129 	 5.417077 
H 	 -0.705211 	 7.087796 	 6.818942 
H 	 -5.685822 	 4.242368 	 6.671234 
H 	 -6.938517 	 4.448845 	 -7.307776 
H 	 -5.623502 	 6.687532 	 6.500840 
H 	 -7.029635 	 6.453972 	 5.834882 
H 	 0.833136 	 1.984748 	 -5.403421 
H 	 -0.284317 	 2.852559 	 -6.038431 
H 	 0.740605 	 4.302248 	 -1.512330 
H 	 1.354037 	 4.784380 	 -0.221132 
H 	 5.283404 	 -2.451267 	 -6.414713 
H 	 4.755658 	 -3.152166 	 -5.041596 
H 	 -3.299415 	 6.394691 	 -6.555938 
H 	 -3.213780 	 5.791108 	 6.892662 
H 	 -4.990269 	 0.557084 	 -2.625022 
H 	 -3.579471 	 -0.143593 	 -2.647603 
H 	 4.024950 	 1.718925 	 1.736610 
H 	 3.081185 	 2.289970 	 2.801401 
H 	 -6.544693 	 0.759215 	 6.587052 
H 	 -6.840409 	 -0.004538 	 -6.998286 
H 	 -5.486133 	 -6.742482 	 3.404390 
H 	 -5.509038 	 -6.353998 	 4.908991 
H 	 5.662416 	 3.655951 	 4.769299 
H 	 7.045153 	 4.049312 	 5.392551 
H 	 3.705421 	 1.283784 	 -5.489610 
H 	 2.752884 	 0.019396 	 -5.711786 
H 	 -0.934298 	 -3.871291 	 5.745917 
H 	 -1.187255 	 -5.375008 	 5.689801 
H 	 1.723972 	 -0.207403 	 -2.258150 
H 	 1.990813 	 0.175332 	 -3.858925 
H 	 2.175693 	 -3.150327 	 -3.882133 
H 	 2.462538 	 -4.539481 	 -3.361421 
H 	 3.352255 	 0.593445 	 -0.851751 
H 	 2.306124 	 -0.188049 	 0.060785 
H 	 -1.911269 	 5.723206 	 -4.467411 
H 	 -3.225537 	 4.795025 	 -4.286076 
H 	 0.530257 	 -2.120632 	 -5.215107 
H 	 1.732140 	 -2.240522 	 -6.151954 
H 	 1.169131 	 4.870998 	 5.198832 
H 	 1.920214 	 5.155605 	 6.650788 
H 	 -5.571767 	 6.131732 	 2.484171 
H 	 -6.831706 	 7.117925 	 2.476120 
H 	 5.067425 	 -1.512583 	 -2.908577 
H 	 4.813769 	 -1.046483 	 -4.298288 
H 	 1.952011 	 5.542571 	 -6.042475 
H 	 2.418094 	 6.858448 	 -6.818721 
H 	 -0.795399 	 -4.166849 	 -6.524393 
H 	 -1.597472 	 -3.550087 	 -5.285987 
H 	 2.208677 	 -2.533427 	 6.557646 
H 	 1.176520 	 -1.792409 	 5.679664 
H 	 -1.162847 	 0.958796 	 -5.504766 
H 	 -1.611553 	 -0.405105 	 -5.010450 
H 	 -6.273551 	 -0.448516 	 1.705885 
H 	 -5.456893 	 0.802887 	 1.288494 
H 	 -4.368452 	 -1.972448 	 4.474457 
H 	 -3.885727 	 -1.745049 	 5.921046 
H 	 -4.891713 	 4.926272 	 4.605225 
H 	 -4.009717 	 4.787558 	 3.231582 
H 	 -5.321857 	 -5.122200 	 -7.342835 
H 	 -5.684640 	 -4.913571 	 6.071859 
H 	 -3.714417 	 3.336636 	 6.931149 
H 	 -3.538683 	 3.555720 	 5.435994 
H 	 -6.399981 	 -0.961958 	 -5.045008 
H 	 -5.222043 	 -1.047979 	 -4.112382 
H 	 -1.146026 	 3.341916 	 -3.508314 
H 	 -5.191702 	 2.508320 	 -0.475210 
H 	 6.584081 	 -5.031937 	 6.233621 
H 	 6.001648 	 -6.456391 	 6.431371 
H 	 2.484590 	 -5.021075 	 -6.894349 
H 	 1.326753 	 -4.940122 	 7.047044 
H 	 0.650489 	 1.893398 	 4.057379 
H 	 0.135377 	 1.932014 	 2.658698 
H 	 -3.343614 	 -6.357545 	 -2.080775 
H 	 -3.479887 	 -6.190985 	 -3.671052 
H 	 -4.354133 	 3.113441 	 0.653063 
O 	 4.961918 	 -6.540193 	 -3.503799 
O 	 1.877519 	 4.663708 	 1.303048 
O 	 6.705198 	 -7.376766 	 3.225662 
O 	 2.963170 	 -6.511649 	 -5.477518 
O 	 5.875151 	 6.638978 	 6.332365 
O 	 3.932001 	 5.985892 	 4.323477 
O 	 -6.632995 	 4.280262 	 -5.092493 
O 	 5.946282 	 -0.288453 	 4.271272 
O 	 -6.756732 	 5.665906 	 -0.361479 
O 	 7.181347 	 -2.698570 	 5.224437 
O 	 0.513371 	 -5.809339 	 -4.099431 
O 	 -6.299435 	 0.490450 	 4.939280 
O 	 -0.664168 	 -2.283541 	 5.011528 
O 	 4.007591 	 0.260230 	 6.384482 
O 	 -2.956352 	 -6.321618 	 0.040300 
O 	 3.889655 	 -6.215251 	 4.498596 
O 	 -0.147776 	 5.610123 	 3.685768 
O 	 6.475344 	 2.822551 	 0.411297 
O 	 -5.593818 	 1.927347 	 -2.241614 
O 	 -2.239831 	 1.082331 	 -1.026181 
O 	 -5.121733 	 -4.426742 	 -1.858744 
O 	 -1.144415 	 -1.620246 	 -0.977483 
O 	 4.285310 	 5.384778 	 -3.825487 
O 	 6.622773 	 -5.373383 	 -5.467788 
O 	 -1.162052 	 4.203237 	 -7.043546 
O 	 -2.226835 	 -5.764025 	 3.900596 
O 	 -4.926564 	 -3.179984 	 3.247516 
O 	 -2.334138 	 -4.183301 	 -2.694264 
O 	 4.950762 	 -2.786037 	 0.998860 
O 	 3.971850 	 2.484103 	 -1.315606 
O 	 0.980532 	 -6.899063 	 2.826637 
O 	 4.383909 	 2.937952 	 5.545503 
O 	 2.983375 	 7.150658 	 -1.359210 
O 	 5.253454 	 0.161538 	 1.475620 
O 	 5.446384 	 4.603712 	 -6.470649 
O 	 1.405370 	 5.152963 	 -4.273695 
O 	 6.398302 	 3.919204 	 -2.697860 
O 	 -1.892479 	 5.252713 	 -0.577661 
O 	 -2.210321 	 2.215206 	 4.866916 
O 	 1.750762 	 -0.608317 	 2.335485 
O 	 -3.195552 	 -3.561049 	 1.063698 
O 	 1.041164 	 1.608017 	 6.378065 
O 	 7.251128 	 -2.026953 	 -7.007458 
O 	 3.497073 	 -6.615849 	 1.564840 
O 	 -2.678038 	 -0.002922 	 2.950721 
O 	 -0.881973 	 6.592438 	 -3.071281 
O 	 6.707122 	 -4.616619 	 1.945405 
O 	 -7.117434 	 -1.905428 	 2.235270 
O 	 -4.309526 	 3.221639 	 -3.988358 
O 	 7.434230 	 0.600492 	 -4.164475 
O 	 -6.496348 	 7.106898 	 -5.783526 
O 	 -0.428745 	 -2.552556 	 1.690650 
O 	 1.704584 	 2.683342 	 -2.662147 
O 	 -0.909507 	 -1.663319 	 -3.940939 
O 	 -2.369846 	 4.449078 	 2.060380 
O 	 1.500086 	 -4.756219 	 4.446665 
O 	 5.525101 	 5.999364 	 -0.251743 
O 	 -0.132332 	 -4.810716 	 -1.189650 
O 	 -0.185000 	 -7.169834 	 0.175951 
O 	 -1.283733 	 1.890435 	 1.510051 
O 	 -3.626838 	 -2.562870 	 -7.394236 
O 	 -1.108701 	 -0.254131 	 6.620491 
O 	 2.994053 	 -4.381030 	 -0.236873 
O 	 -4.778828 	 -1.926001 	 -0.511138 
O 	 -6.315457 	 -5.852087 	 0.204811 
O 	 -3.944717 	 1.908117 	 -6.926478 
O 	 -3.851185 	 -5.695796 	 -6.673298 
O 	 5.644353 	 1.531390 	 -6.848102 
O 	 5.758994 	 -5.318353 	 -1.217638 
O 	 -4.687791 	 5.441752 	 -2.163060 
O 	 -5.678888 	 -4.233709 	 -4.592357 
O 	 3.725931 	 -2.561728 	 3.359067 
O 	 -6.861987 	 2.499732 	 2.994241 
O 	 -0.382980 	 7.352922 	 5.899357 
O 	 -6.683929 	 4.328061 	 6.658895 
O 	 -6.199836 	 6.952774 	 5.765066 
O 	 -0.065131 	 2.248022 	 -5.263198 
O 	 1.022585 	 5.114587 	 -1.084813 
O 	 4.583595 	 -2.415494 	 -5.702845 
O 	 -3.213283 	 6.627833 	 7.395250 
O 	 -4.524116 	 -0.335234 	 -2.818358 
O 	 3.528860 	 2.552902 	 1.960925 
O 	 -6.522878 	 0.833372 	 -7.355778 
O 	 -5.457810 	 -5.920136 	 4.014422 
O 	 6.552730 	 4.040927 	 4.509776 
O 	 2.769582 	 0.983492 	 -5.522833 
O 	 -0.650576 	 -4.696957 	 6.168994 
O 	 1.347788 	 -0.033787 	 -3.142351 
O 	 2.741161 	 -3.613169 	 -3.197626 
O 	 2.846545 	 -0.239938 	 -0.733845 
O 	 -2.769296 	 5.435661 	 -4.902642 
O 	 1.488951 	 -1.840907 	 -5.305891 
O 	 1.873916 	 4.542895 	 5.792131 
O 	 -5.933468 	 6.906182 	 1.941968 
O 	 5.216697 	 -0.744039 	 -3.462331 
O 	 2.357828 	 5.880890 	 -6.879572 
O 	 -1.270891 	 -4.374349 	 -5.706307 
O 	 2.103198 	 -1.737950 	 6.025288 
O 	 -1.829681 	 0.239144 	 -5.717741 
O 	 -5.332383 	 -0.067723 	 1.617476 
O 	 -4.135609 	 -1.265716 	 5.100902 
O 	 -4.880863 	 4.830684 	 3.641363 
O 	 -6.047569 	 -4.825719 	 6.949893 
O 	 -3.833866 	 4.072679 	 6.228762 
O 	 -5.701761 	 -1.547832 	 -4.817741 
O 	 -1.845645 	 3.120216 	 -2.864806 
O 	 5.730338 	 -5.515875 	 6.380250 
O 	 2.082730 	 -4.385287 	 7.370687 
O 	 0.948488 	 1.959052 	 3.154636 
O 	 -3.316617 	 -6.799120 	 -2.911309 
O 	 -4.640163 	 2.248309 	 0.280257 
K 	 5.128602 	 4.979539 	 2.005627 
