333
conformation = 9
H 	 4.627145 	 -7.406938 	 -3.224968 
H 	 5.207633 	 -6.109943 	 -2.626754 
H 	 1.255428 	 4.852119 	 2.000283 
H 	 2.258342 	 3.718585 	 1.482265 
H 	 6.987291 	 -7.175116 	 4.328034 
H 	 6.626771 	 -6.442849 	 3.047303 
H 	 2.242962 	 -6.430409 	 -4.817128 
H 	 3.805950 	 -6.283116 	 -4.712998 
H 	 5.757908 	 6.028537 	 7.113376 
H 	 5.246010 	 6.411567 	 5.697151 
H 	 3.305186 	 5.647134 	 5.009851 
H 	 3.803068 	 6.984159 	 4.461971 
H 	 -5.728074 	 3.946215 	 -4.898565 
H 	 -6.244150 	 5.354720 	 -5.160251 
H 	 5.290497 	 -0.074304 	 5.030964 
H 	 6.849578 	 0.222863 	 4.543990 
H 	 -5.964797 	 5.734585 	 -0.989808 
H 	 -6.406305 	 6.466383 	 0.304591 
H 	 6.830934 	 -2.103890 	 4.701969 
H 	 -6.749474 	 -2.970838 	 4.953676 
H 	 0.156811 	 -6.427481 	 -3.615092 
H 	 -0.161694 	 -5.247356 	 -4.539602 
H 	 -5.600850 	 -0.184431 	 5.009522 
H 	 -6.181634 	 1.162508 	 4.213618 
H 	 -0.867243 	 -2.028198 	 4.130799 
H 	 -1.032568 	 -1.528324 	 5.649905 
H 	 3.456510 	 -0.581141 	 6.467761 
H 	 4.479833 	 0.477609 	 7.347857 
H 	 -1.892600 	 -6.455718 	 0.401880 
H 	 -3.120173 	 -5.488785 	 0.587375 
H 	 3.043694 	 -5.782430 	 4.581806 
H 	 4.395089 	 -5.863801 	 5.341313 
H 	 0.132333 	 6.539691 	 3.234705 
H 	 -0.854297 	 5.246339 	 3.175421 
H 	 7.213917 	 2.730791 	 1.160818 
H 	 5.907606 	 2.038209 	 0.631484 
H 	 -5.045136 	 2.590752 	 -3.006940 
H 	 -6.445611 	 1.810851 	 -2.782799 
H 	 -3.175604 	 1.426281 	 -0.662819 
H 	 -2.077301 	 1.819944 	 -1.633026 
H 	 -5.440490 	 -4.131250 	 -2.807695 
H 	 -5.106130 	 -3.527461 	 -1.357064 
H 	 -1.749117 	 -0.874528 	 -0.976821 
H 	 -1.610046 	 -2.425792 	 -1.252247 
H 	 4.742269 	 5.019491 	 -2.996426 
H 	 3.312010 	 5.454030 	 -3.721736 
H 	 6.232300 	 -5.541131 	 -6.352007 
H 	 6.084260 	 -5.773633 	 -4.790814 
H 	 -1.408012 	 4.544253 	 7.106269 
H 	 -1.911782 	 4.655055 	 -6.343399 
H 	 -1.939333 	 -6.612635 	 4.129592 
H 	 -3.096131 	 -5.695947 	 3.704350 
H 	 -4.275518 	 -3.362928 	 2.537521 
H 	 -5.103476 	 -4.094249 	 3.503954 
H 	 -1.841700 	 -4.594972 	 -1.978871 
H 	 -3.228958 	 -4.185120 	 -2.445472 
H 	 4.470525 	 -2.948455 	 0.282693 
H 	 4.392018 	 -2.521006 	 1.787770 
H 	 4.613411 	 2.656689 	 -1.944858 
H 	 4.308917 	 3.179440 	 -0.474699 
H 	 1.042736 	 -5.984263 	 3.318190 
H 	 1.878059 	 -7.061155 	 2.548675 
H 	 4.245998 	 2.030048 	 5.395142 
H 	 3.560527 	 3.388503 	 5.502589 
H 	 2.820298 	 -7.441215 	 -0.415578 
H 	 2.528477 	 6.531570 	 -1.509096 
H 	 5.255157 	 -0.660725 	 1.176137 
H 	 5.670742 	 0.159575 	 2.493632 
H 	 6.127672 	 4.529759 	 -5.712632 
H 	 4.709787 	 4.855074 	 -5.822464 
H 	 1.255424 	 4.182398 	 -4.022438 
H 	 0.652510 	 5.642656 	 -3.923706 
H 	 6.804848 	 4.010599 	 -1.748955 
H 	 7.143219 	 4.211288 	 -3.220889 
H 	 -2.747954 	 5.237156 	 -1.031578 
H 	 -1.301276 	 4.644039 	 -0.935287 
H 	 -2.577059 	 1.925260 	 5.692536 
H 	 -2.480933 	 1.579651 	 4.273530 
H 	 1.738300 	 0.496670 	 2.461762 
H 	 0.925468 	 -0.734570 	 2.392126 
H 	 -3.685974 	 -2.901152 	 0.333205 
H 	 -2.404810 	 -3.091861 	 1.371662 
H 	 1.202568 	 2.747698 	 6.535746 
H 	 1.874749 	 1.330152 	 6.728852 
H 	 7.160613 	 -1.777666 	 6.913528 
H 	 -7.177960 	 -2.768074 	 -6.870680 
H 	 3.948880 	 -6.208426 	 2.335398 
H 	 3.427725 	 -5.905557 	 0.890015 
H 	 -2.631072 	 -0.555472 	 3.832572 
H 	 -3.504302 	 -0.119129 	 2.743449 
H 	 -0.566766 	 6.484814 	 -2.048625 
H 	 -1.719483 	 7.215909 	 -2.908345 
H 	 5.910398 	 -4.137678 	 1.846438 
H 	 7.179646 	 -4.757555 	 1.076116 
H 	 -6.464977 	 -2.436085 	 2.683115 
H 	 7.181202 	 -2.513914 	 1.780915 
H 	 -2.711307 	 3.189619 	 -3.206651 
H 	 -4.042365 	 2.734208 	 -4.756350 
H 	 6.884306 	 0.010201 	 -3.711445 
H 	 6.747898 	 1.170461 	 -4.595314 
H 	 -5.688679 	 -7.160055 	 -5.822355 
H 	 -7.149258 	 -7.280294 	 -5.353950 
H 	 0.076460 	 -3.247011 	 1.328946 
H 	 -0.657561 	 -1.883790 	 1.059617 
H 	 1.289521 	 1.897074 	 -2.713539 
H 	 2.583880 	 2.619825 	 -2.128318 
H 	 -0.232019 	 -1.128376 	 -3.415751 
H 	 -1.363770 	 -2.142704 	 -3.213052 
H 	 -2.141816 	 3.603405 	 2.022912 
H 	 -2.338519 	 4.834831 	 1.164806 
H 	 2.101391 	 -3.870534 	 4.676994 
H 	 0.806225 	 -4.668233 	 5.230075 
H 	 5.063248 	 6.543023 	 -0.893243 
H 	 6.573593 	 5.998703 	 -0.520816 
H 	 0.008623 	 -5.713552 	 -1.025276 
H 	 0.299858 	 -4.621036 	 -2.055826 
H 	 -0.491930 	 6.814233 	 0.240419 
H 	 0.165568 	 -6.944563 	 1.160921 
H 	 -1.267615 	 1.746539 	 0.549549 
H 	 -1.773962 	 1.132268 	 1.861964 
H 	 -4.202661 	 -2.114354 	 -6.759920 
H 	 -3.675249 	 -3.539398 	 -7.309730 
H 	 -0.359990 	 0.519564 	 6.590404 
H 	 -1.296553 	 -0.246559 	 -7.270635 
H 	 3.434120 	 -4.671454 	 -1.089137 
H 	 2.073148 	 -4.267412 	 -0.382844 
H 	 -4.932027 	 -1.293977 	 0.259200 
H 	 -4.461552 	 -1.330922 	 -1.264840 
H 	 -5.787276 	 -5.113329 	 -0.421140 
H 	 -5.655856 	 -6.301597 	 0.601258 
H 	 -4.676244 	 1.425433 	 -7.146452 
H 	 -3.263154 	 1.414098 	 -6.517747 
H 	 -2.919967 	 -5.220228 	 -6.356569 
H 	 -3.563457 	 -6.144774 	 -7.429510 
H 	 6.660546 	 1.401002 	 -7.179695 
H 	 5.422127 	 2.359293 	 -7.112426 
H 	 5.457845 	 -4.810691 	 -0.425317 
H 	 6.370902 	 -5.939673 	 -0.857062 
H 	 -4.951386 	 4.853087 	 -2.762732 
H 	 -4.359188 	 6.301778 	 -2.520098 
H 	 -6.504156 	 -4.609346 	 -4.865714 
H 	 -5.833230 	 -3.183913 	 -4.531185 
H 	 3.098592 	 -1.842678 	 3.373632 
H 	 4.386482 	 -2.076833 	 4.021062 
H 	 -6.244378 	 3.305769 	 2.955433 
H 	 7.379757 	 2.937515 	 3.682329 
H 	 -0.326268 	 6.587948 	 5.364517 
H 	 -0.562162 	 7.041595 	 6.788699 
H 	 -5.707799 	 4.078446 	 6.623939 
H 	 -6.778593 	 4.317220 	 -7.226799 
H 	 -5.589293 	 6.645864 	 6.506617 
H 	 -6.821934 	 6.323111 	 5.880660 
H 	 0.890312 	 1.929414 	 -5.271565 
H 	 -0.101979 	 3.028930 	 -5.842009 
H 	 1.355998 	 4.262675 	 -1.504355 
H 	 1.239808 	 5.059116 	 -0.167879 
H 	 5.468745 	 -2.144903 	 -6.302989 
H 	 4.895224 	 -3.173073 	 -5.248260 
H 	 -3.132787 	 6.484253 	 -6.483536 
H 	 -3.194982 	 5.744508 	 7.091279 
H 	 -4.859561 	 0.609620 	 -2.438135 
H 	 -3.589844 	 -0.128038 	 -2.996295 
H 	 4.059110 	 1.870526 	 1.837102 
H 	 3.055532 	 2.505161 	 2.929253 
H 	 -6.490560 	 0.746497 	 6.668855 
H 	 -6.515009 	 -0.040375 	 -6.932684 
H 	 -5.656710 	 -6.597325 	 3.481577 
H 	 -5.172694 	 -6.324605 	 4.859987 
H 	 5.747118 	 3.505665 	 4.714559 
H 	 7.066090 	 3.926072 	 5.417313 
H 	 3.619562 	 1.169959 	 -5.123107 
H 	 2.813022 	 0.042488 	 -5.709711 
H 	 -0.951423 	 -3.826523 	 5.725921 
H 	 -1.103071 	 -5.484527 	 5.758248 
H 	 2.024813 	 -0.050821 	 -2.477541 
H 	 1.894517 	 0.105664 	 -3.906870 
H 	 2.395789 	 -3.133366 	 -3.792474 
H 	 2.453580 	 -4.561320 	 -3.173984 
H 	 3.598367 	 0.556785 	 -0.687542 
H 	 2.740443 	 -0.137877 	 0.313980 
H 	 -2.035571 	 5.542331 	 -4.198901 
H 	 -3.422689 	 4.891541 	 -4.474583 
H 	 0.688332 	 -2.180625 	 -5.198605 
H 	 1.847029 	 -2.241152 	 -6.244852 
H 	 1.103793 	 4.821418 	 5.219269 
H 	 1.880901 	 5.136312 	 6.600285 
H 	 -5.523912 	 6.207872 	 2.260612 
H 	 -6.983901 	 6.936573 	 2.481321 
H 	 5.315401 	 -1.417975 	 -2.804200 
H 	 4.909515 	 -1.218605 	 -4.226260 
H 	 2.108704 	 5.849501 	 -5.915032 
H 	 2.707931 	 6.835501 	 -6.769508 
H 	 -0.723985 	 -4.016883 	 -6.418680 
H 	 -1.514957 	 -3.606240 	 -5.111760 
H 	 2.322381 	 -2.661049 	 6.396142 
H 	 1.200634 	 -1.772061 	 5.711035 
H 	 -1.140375 	 1.013422 	 -5.398966 
H 	 -1.765526 	 -0.413804 	 -5.035610 
H 	 -6.059230 	 -0.331768 	 2.048791 
H 	 -5.307796 	 0.973508 	 1.336040 
H 	 -4.383715 	 -1.968096 	 4.525552 
H 	 -3.870534 	 -1.595037 	 5.992344 
H 	 -4.832169 	 4.991367 	 4.557326 
H 	 -3.866376 	 4.775941 	 3.421545 
H 	 -5.326792 	 -5.009733 	 -7.340739 
H 	 -5.582338 	 -4.880982 	 6.011383 
H 	 -3.718878 	 3.467547 	 6.939128 
H 	 -3.274691 	 3.756090 	 5.488972 
H 	 -6.374405 	 -0.825931 	 -5.163495 
H 	 -5.225831 	 -0.922936 	 -4.118771 
H 	 -1.178365 	 2.815274 	 -3.334031 
H 	 -5.083703 	 2.477027 	 -0.546044 
H 	 6.629433 	 -5.107050 	 6.198453 
H 	 5.859155 	 -6.443057 	 6.493850 
H 	 2.739509 	 -4.569627 	 -6.826940 
H 	 1.577032 	 -5.056342 	 7.116860 
H 	 0.977657 	 1.787773 	 4.199353 
H 	 0.056127 	 2.080090 	 2.867297 
H 	 -3.307757 	 -6.241531 	 -2.003602 
H 	 -3.476089 	 -6.115041 	 -3.466206 
H 	 -4.139473 	 3.089420 	 0.629406 
O 	 5.015159 	 -6.533399 	 -3.477955 
O 	 1.904022 	 4.655896 	 1.332082 
O 	 6.670568 	 -7.367729 	 3.401994 
O 	 3.059936 	 -6.420753 	 -5.375203 
O 	 5.975931 	 6.620157 	 6.350583 
O 	 3.985774 	 6.007441 	 4.370954 
O 	 -6.561622 	 4.420357 	 -5.068404 
O 	 5.960378 	 -0.210309 	 4.306089 
O 	 -6.696511 	 5.711372 	 -0.339485 
O 	 7.271260 	 -2.714428 	 5.310217 
O 	 0.610847 	 -5.658224 	 -4.050188 
O 	 -6.251446 	 0.557059 	 5.002435 
O 	 -0.668066 	 -2.232071 	 5.086167 
O 	 4.049163 	 0.200627 	 6.482763 
O 	 -2.857113 	 -6.344238 	 0.172054 
O 	 3.977144 	 -6.214637 	 4.505958 
O 	 -0.102231 	 5.669881 	 3.706667 
O 	 6.497479 	 2.816974 	 0.489676 
O 	 -5.569098 	 1.997536 	 -2.282756 
O 	 -2.310297 	 1.117145 	 -1.028643 
O 	 -4.989366 	 -4.321519 	 -1.924270 
O 	 -1.092548 	 -1.581769 	 -1.014711 
O 	 4.287709 	 5.441135 	 -3.827278 
O 	 6.644230 	 -5.299528 	 -5.484838 
O 	 -1.162400 	 4.254749 	 -6.901538 
O 	 -2.133580 	 -5.700970 	 3.941783 
O 	 -4.883992 	 -3.174980 	 3.307567 
O 	 -2.251892 	 -4.034793 	 -2.649307 
O 	 5.007227 	 -2.648724 	 1.042245 
O 	 4.075665 	 2.495995 	 -1.144418 
O 	 0.944801 	 -6.879749 	 2.842946 
O 	 4.404302 	 2.983456 	 5.569972 
O 	 3.153879 	 7.262452 	 -1.306783 
O 	 5.322230 	 0.249932 	 1.565021 
O 	 5.421950 	 4.588582 	 -6.388519 
O 	 1.443098 	 5.174495 	 -4.255574 
O 	 6.440260 	 3.927497 	 -2.632878 
O 	 -1.943192 	 5.240940 	 -0.448583 
O 	 -2.127314 	 2.227465 	 4.902781 
O 	 1.859702 	 -0.461802 	 2.376339 
O 	 -3.241911 	 -3.461938 	 1.069252 
O 	 1.049313 	 1.746210 	 6.403355 
O 	 7.291504 	 -1.876399 	 -6.982004 
O 	 3.509320 	 -6.633416 	 1.554692 
O 	 -2.560741 	 0.009759 	 3.066217 
O 	 -0.860974 	 6.682765 	 -2.975868 
O 	 6.758307 	 -4.613102 	 1.921420 
O 	 -7.127804 	 -1.871636 	 2.256681 
O 	 -4.231212 	 3.274124 	 -3.958761 
O 	 7.457550 	 0.637681 	 -4.162215 
O 	 -6.415646 	 7.103919 	 -5.704666 
O 	 -0.430146 	 -2.531948 	 1.750449 
O 	 1.761468 	 2.797736 	 -2.617436 
O 	 -0.926801 	 -1.626386 	 -3.890935 
O 	 -2.372776 	 4.546249 	 2.059086 
O 	 1.480170 	 -4.636709 	 4.506246 
O 	 5.603253 	 5.979211 	 -0.274851 
O 	 0.011621 	 -4.749118 	 -1.142203 
O 	 -0.156846 	 -7.161075 	 0.249399 
O 	 -1.308816 	 1.899559 	 1.546321 
O 	 -3.611215 	 -2.573853 	 -7.370865 
O 	 -1.064226 	 -0.211183 	 6.666512 
O 	 3.033540 	 -4.311537 	 -0.260114 
O 	 -4.731339 	 -1.941204 	 -0.500722 
O 	 -6.304501 	 -5.750466 	 0.134130 
O 	 -3.939836 	 1.994820 	 -6.899117 
O 	 -3.787101 	 -5.637868 	 -6.592561 
O 	 5.735786 	 1.485058 	 -6.822902 
O 	 5.774473 	 -5.246873 	 -1.204793 
O 	 -4.713859 	 5.510012 	 -2.108625 
O 	 -5.676204 	 -4.187592 	 -4.523939 
O 	 3.814594 	 -2.524120 	 3.428582 
O 	 -6.870202 	 2.574117 	 2.993635 
O 	 -0.280589 	 7.357740 	 5.944711 
O 	 -6.639591 	 4.341543 	 6.706257 
O 	 -6.137578 	 7.033339 	 5.796556 
O 	 -0.029191 	 2.353385 	 -5.162657 
O 	 1.039965 	 5.111301 	 -1.097185 
O 	 4.696875 	 -2.370931 	 -5.695005 
O 	 -3.134531 	 6.638782 	 -7.437833 
O 	 -4.504917 	 -0.328130 	 -2.738151 
O 	 3.567287 	 2.663969 	 2.117803 
O 	 -6.436276 	 0.904082 	 -7.232145 
O 	 -5.394526 	 -5.828746 	 4.047281 
O 	 6.543577 	 4.081146 	 4.554430 
O 	 2.762696 	 0.990281 	 -5.516005 
O 	 -0.658668 	 -4.707767 	 6.148882 
O 	 1.290081 	 -0.000926 	 -3.147178 
O 	 2.843212 	 -3.680081 	 -3.144752 
O 	 2.932756 	 -0.169264 	 -0.682203 
O 	 -2.732016 	 5.528201 	 -4.862611 
O 	 1.609679 	 -1.942368 	 -5.333336 
O 	 1.856235 	 4.559575 	 5.787968 
O 	 -5.992931 	 7.017841 	 2.099605 
O 	 5.220166 	 -0.688869 	 -3.463246 
O 	 2.433714 	 5.880819 	 -6.827697 
O 	 -1.157414 	 -4.345208 	 -5.605032 
O 	 2.115429 	 -1.735805 	 6.053503 
O 	 -1.811800 	 0.354902 	 -5.676022 
O 	 -5.248536 	 -0.000345 	 1.662098 
O 	 -4.154141 	 -1.204344 	 5.107151 
O 	 -4.818957 	 4.859719 	 3.591815 
O 	 -6.036248 	 -4.726649 	 6.883069 
O 	 -3.759741 	 4.163012 	 6.250687 
O 	 -5.704323 	 -1.465605 	 -4.764405 
O 	 -1.849108 	 3.147773 	 -2.696274 
O 	 5.757985 	 -5.441912 	 6.446529 
O 	 2.105622 	 -4.277909 	 7.369289 
O 	 1.016654 	 2.008059 	 3.223903 
O 	 -3.327017 	 -6.832767 	 -2.843633 
O 	 -4.519421 	 2.283957 	 0.246823 
K 	 5.191904 	 5.051882 	 2.062417 
