333
conformation = 2
H 	 4.544017 	 -7.391133 	 -3.344059 
H 	 5.289542 	 -6.046324 	 -2.659090 
H 	 1.245510 	 4.910985 	 2.042384 
H 	 2.038812 	 3.712485 	 1.567793 
H 	 6.999296 	 -7.192439 	 4.338252 
H 	 6.701274 	 -6.509187 	 2.965387 
H 	 2.212536 	 -6.369938 	 -4.919636 
H 	 3.699716 	 -6.289935 	 -4.619376 
H 	 5.768458 	 6.014942 	 7.103001 
H 	 5.343365 	 6.428785 	 5.633748 
H 	 3.307746 	 5.686952 	 4.988341 
H 	 3.802877 	 6.984751 	 4.365193 
H 	 -5.685816 	 3.957399 	 -4.954357 
H 	 -6.342013 	 5.418354 	 -5.235297 
H 	 5.326250 	 0.088225 	 5.017553 
H 	 6.832192 	 0.076350 	 4.548989 
H 	 -5.913937 	 5.709556 	 -0.988583 
H 	 -6.333905 	 6.329613 	 0.282965 
H 	 6.871813 	 -2.128842 	 4.662443 
H 	 -6.779485 	 -3.003355 	 4.951713 
H 	 0.227592 	 -6.421451 	 -3.641333 
H 	 -0.089695 	 -5.262751 	 -4.610855 
H 	 -5.603547 	 -0.190167 	 4.943819 
H 	 -6.098719 	 1.170661 	 4.252195 
H 	 -0.804279 	 -2.082382 	 4.152457 
H 	 -1.059973 	 -1.443089 	 5.665915 
H 	 3.442517 	 -0.616659 	 6.413935 
H 	 4.474373 	 0.299991 	 7.344327 
H 	 -1.915228 	 -6.438262 	 0.473251 
H 	 -3.169482 	 -5.496501 	 0.508858 
H 	 3.071821 	 -5.949253 	 4.598075 
H 	 4.431255 	 -5.876867 	 5.294433 
H 	 0.223071 	 6.511711 	 3.312243 
H 	 -0.863982 	 5.259225 	 3.232928 
H 	 7.164041 	 2.669606 	 1.201661 
H 	 5.881343 	 2.055400 	 0.603613 
H 	 -4.996792 	 2.568059 	 -2.932431 
H 	 -6.387284 	 1.922707 	 -2.810200 
H 	 -3.151918 	 1.483494 	 -0.595651 
H 	 -2.084655 	 1.912074 	 -1.683791 
H 	 -5.480137 	 -4.210780 	 -2.795212 
H 	 -5.156654 	 -3.526630 	 -1.372891 
H 	 -1.753276 	 -0.835276 	 -1.035261 
H 	 -1.615413 	 -2.339273 	 -1.251706 
H 	 4.774883 	 5.073841 	 -3.145029 
H 	 3.302744 	 5.452194 	 -3.713161 
H 	 6.250181 	 -5.402695 	 -6.391008 
H 	 6.023507 	 -5.774639 	 -4.928211 
H 	 -1.354751 	 4.582517 	 7.135406 
H 	 -1.846658 	 4.644188 	 -6.284021 
H 	 -1.873859 	 -6.662663 	 4.029812 
H 	 -3.089561 	 -5.784073 	 3.856935 
H 	 -4.278842 	 -3.363742 	 2.526893 
H 	 -5.166624 	 -4.131206 	 3.604371 
H 	 -1.721695 	 -4.571881 	 -2.033254 
H 	 -3.181096 	 -4.187291 	 -2.425878 
H 	 4.413848 	 -2.920086 	 0.319810 
H 	 4.380044 	 -2.539860 	 1.827897 
H 	 4.653534 	 2.705138 	 -1.890898 
H 	 4.357110 	 3.154585 	 -0.456922 
H 	 0.944084 	 -6.025391 	 3.273780 
H 	 1.825247 	 -7.140025 	 2.554369 
H 	 4.244121 	 2.015054 	 5.462748 
H 	 3.500147 	 3.464899 	 5.419952 
H 	 2.856212 	 -7.378468 	 -0.412720 
H 	 2.550564 	 6.575684 	 -1.533613 
H 	 5.460004 	 -0.627007 	 1.249494 
H 	 5.725201 	 0.170170 	 2.478011 
H 	 6.104192 	 4.571579 	 -5.669239 
H 	 4.585964 	 4.955641 	 -5.902571 
H 	 1.303960 	 4.254730 	 -4.019243 
H 	 0.685165 	 5.600558 	 -3.796339 
H 	 6.811342 	 4.133435 	 -1.725462 
H 	 7.203853 	 4.117177 	 -3.228636 
H 	 -2.769659 	 5.201178 	 -0.987038 
H 	 -1.263272 	 4.746634 	 -0.865122 
H 	 -2.527969 	 1.874483 	 5.768220 
H 	 -2.402088 	 1.546663 	 4.217881 
H 	 1.647843 	 0.548541 	 2.552926 
H 	 0.991412 	 -0.811019 	 2.408175 
H 	 -3.721467 	 -2.987734 	 0.321594 
H 	 -2.466951 	 -2.940878 	 1.357880 
H 	 1.146864 	 2.724464 	 6.466450 
H 	 1.903941 	 1.389722 	 6.694071 
H 	 7.061852 	 -1.775887 	 6.977277 
H 	 -7.150914 	 -2.669973 	 -6.883179 
H 	 3.943433 	 -6.289572 	 2.317348 
H 	 3.423183 	 -5.850905 	 0.974753 
H 	 -2.587122 	 -0.644928 	 3.877773 
H 	 -3.439469 	 -0.113416 	 2.704531 
H 	 -0.602735 	 6.428440 	 -2.063173 
H 	 -1.668776 	 7.220063 	 -2.719720 
H 	 5.908612 	 -4.150709 	 1.785867 
H 	 7.290343 	 -4.830322 	 1.069815 
H 	 -6.472565 	 -2.369830 	 2.785269 
H 	 7.232731 	 -2.467707 	 1.713581 
H 	 -2.762465 	 3.210812 	 -3.183687 
H 	 -4.039400 	 2.678895 	 -4.706544 
H 	 6.884978 	 0.077987 	 -3.534403 
H 	 6.706278 	 1.169301 	 -4.546253 
H 	 -5.656861 	 -7.185263 	 -5.810071 
H 	 -7.101959 	 -7.282912 	 -5.232655 
H 	 0.113346 	 -3.130615 	 1.241365 
H 	 -0.506340 	 -1.877562 	 1.004848 
H 	 1.394889 	 1.938915 	 -2.696657 
H 	 2.638891 	 2.762831 	 -2.162440 
H 	 -0.242165 	 -1.121431 	 -3.380611 
H 	 -1.298801 	 -2.152120 	 -3.128019 
H 	 -2.068360 	 3.620145 	 2.095091 
H 	 -2.431930 	 4.745046 	 1.016441 
H 	 2.058198 	 -3.868289 	 4.641436 
H 	 0.785290 	 -4.671891 	 5.241717 
H 	 5.050849 	 6.483919 	 -0.909168 
H 	 6.542812 	 6.125080 	 -0.583365 
H 	 0.102495 	 -5.703386 	 -0.906549 
H 	 0.281231 	 -4.652002 	 -2.105775 
H 	 -0.388808 	 6.778133 	 0.314522 
H 	 0.202307 	 -6.933303 	 1.154379 
H 	 -1.278324 	 1.759952 	 0.588611 
H 	 -1.783348 	 1.061879 	 1.899291 
H 	 -4.379645 	 -2.259165 	 -6.812417 
H 	 -3.746947 	 -3.547765 	 -7.287038 
H 	 -0.413148 	 0.466591 	 6.505333 
H 	 -1.302977 	 -0.241028 	 -7.267938 
H 	 3.377997 	 -4.619206 	 -1.124759 
H 	 2.107515 	 -4.164335 	 -0.637528 
H 	 -4.915078 	 -1.372911 	 0.252814 
H 	 -4.516623 	 -1.386508 	 -1.280526 
H 	 -5.827524 	 -5.047069 	 -0.406632 
H 	 -5.653156 	 -6.297177 	 0.492484 
H 	 -4.760700 	 1.454167 	 -7.123651 
H 	 -3.315003 	 1.457904 	 -6.354235 
H 	 -2.902622 	 -5.235218 	 -6.367988 
H 	 -3.540850 	 -6.072968 	 -7.405182 
H 	 6.637590 	 1.412284 	 -7.219685 
H 	 5.471957 	 2.348656 	 -7.139044 
H 	 5.425619 	 -4.827653 	 -0.373389 
H 	 6.411646 	 -5.892757 	 -0.873033 
H 	 -4.892474 	 4.861202 	 -2.833372 
H 	 -4.369591 	 6.372807 	 -2.502371 
H 	 -6.555659 	 -4.499905 	 -4.842465 
H 	 -5.876505 	 -3.219676 	 -4.515196 
H 	 3.054110 	 -1.908462 	 3.314923 
H 	 4.453973 	 -2.092342 	 4.108563 
H 	 -6.196662 	 3.312560 	 2.918844 
H 	 7.379650 	 2.953087 	 3.665417 
H 	 -0.367393 	 6.592064 	 5.308437 
H 	 -0.606798 	 6.930297 	 6.798548 
H 	 -5.730705 	 3.985782 	 6.520974 
H 	 -6.733893 	 4.235629 	 -7.203133 
H 	 -5.519778 	 6.745522 	 6.514717 
H 	 -6.847031 	 6.384387 	 5.862634 
H 	 0.832694 	 1.991366 	 -5.237941 
H 	 -0.095018 	 3.069195 	 -5.859185 
H 	 1.549120 	 4.345820 	 -1.481031 
H 	 1.258535 	 5.035059 	 -0.132388 
H 	 5.506311 	 -2.003550 	 -6.184877 
H 	 4.884753 	 -3.261416 	 -5.295869 
H 	 -3.049712 	 6.507517 	 -6.445164 
H 	 -3.323328 	 5.748876 	 7.050776 
H 	 -4.871272 	 0.547724 	 -2.459258 
H 	 -3.626817 	 -0.117827 	 -3.112082 
H 	 4.004551 	 1.826811 	 1.943965 
H 	 2.985837 	 2.476021 	 2.918044 
H 	 -6.384785 	 0.820154 	 6.700178 
H 	 -6.429432 	 -0.026355 	 -6.953611 
H 	 -5.746722 	 -6.478588 	 3.394132 
H 	 -5.159589 	 -6.449781 	 4.766044 
H 	 5.678826 	 3.630211 	 4.860343 
H 	 7.036408 	 4.061244 	 5.380745 
H 	 3.574708 	 1.165760 	 -5.032505 
H 	 2.761952 	 0.014618 	 -5.772137 
H 	 -0.948088 	 -3.912471 	 5.690944 
H 	 -1.100995 	 -5.506357 	 5.744114 
H 	 1.942562 	 -0.150076 	 -2.469988 
H 	 1.730282 	 0.049089 	 -4.022742 
H 	 2.476451 	 -3.119928 	 -3.834757 
H 	 2.373989 	 -4.558721 	 -3.271511 
H 	 3.659078 	 0.518602 	 -0.716074 
H 	 2.796911 	 -0.268165 	 0.271960 
H 	 -2.104480 	 5.477370 	 -4.084766 
H 	 -3.409934 	 4.838643 	 -4.688554 
H 	 0.668536 	 -2.160516 	 -5.242459 
H 	 1.788921 	 -2.363973 	 -6.242516 
H 	 1.107170 	 4.824530 	 5.185101 
H 	 1.828103 	 5.100904 	 6.610688 
H 	 -5.514084 	 6.203927 	 2.308298 
H 	 -6.886869 	 6.944030 	 2.511203 
H 	 5.326186 	 -1.317913 	 -2.754351 
H 	 5.006892 	 -1.340614 	 -4.248702 
H 	 2.068168 	 5.797864 	 -5.898092 
H 	 2.862678 	 6.766033 	 -6.763623 
H 	 -0.758967 	 -4.074430 	 -6.441938 
H 	 -1.478744 	 -3.614723 	 -5.012681 
H 	 2.290218 	 -2.657342 	 6.317218 
H 	 1.185476 	 -1.743921 	 5.691981 
H 	 -1.139718 	 1.029511 	 -5.347203 
H 	 -1.748762 	 -0.352528 	 -5.047941 
H 	 -6.078382 	 -0.285831 	 2.082168 
H 	 -5.321740 	 0.897126 	 1.380918 
H 	 -4.392228 	 -2.002539 	 4.545680 
H 	 -3.945008 	 -1.565141 	 5.959680 
H 	 -4.929819 	 5.092575 	 4.498144 
H 	 -3.847949 	 4.733608 	 3.342614 
H 	 -5.397538 	 -4.942354 	 -7.403674 
H 	 -5.606261 	 -4.830988 	 6.009292 
H 	 -3.766634 	 3.412544 	 6.912756 
H 	 -3.170223 	 3.775215 	 5.560707 
H 	 -6.403637 	 -0.871519 	 -5.062973 
H 	 -5.308346 	 -0.913228 	 -4.010221 
H 	 -1.335045 	 2.616683 	 -3.296526 
H 	 -5.029345 	 2.466789 	 -0.591460 
H 	 6.645129 	 -5.134706 	 6.165897 
H 	 5.893886 	 -6.414339 	 6.525088 
H 	 2.734041 	 -4.516017 	 -6.855046 
H 	 1.679830 	 -5.122726 	 7.198747 
H 	 0.935742 	 1.770637 	 4.172819 
H 	 0.126444 	 2.091544 	 2.975297 
H 	 -3.360308 	 -6.445587 	 -1.968073 
H 	 -3.519547 	 -6.144176 	 -3.493800 
H 	 -4.143650 	 3.144191 	 0.547632 
O 	 5.021180 	 -6.554470 	 -3.476013 
O 	 1.901232 	 4.643856 	 1.333250 
O 	 6.635123 	 -7.365569 	 3.457698 
O 	 3.079386 	 -6.396205 	 -5.359311 
O 	 5.983912 	 6.598677 	 6.346867 
O 	 3.984417 	 6.001854 	 4.384985 
O 	 -6.549964 	 4.464127 	 -5.073987 
O 	 5.941685 	 -0.193299 	 4.307703 
O 	 -6.691082 	 5.719556 	 -0.338888 
O 	 7.285636 	 -2.734745 	 5.328551 
O 	 0.627529 	 -5.621865 	 -4.030381 
O 	 -6.258954 	 0.571178 	 5.010013 
O 	 -0.687517 	 -2.228040 	 5.092186 
O 	 4.045534 	 0.166310 	 6.489114 
O 	 -2.839694 	 -6.359864 	 0.207598 
O 	 3.973308 	 -6.216009 	 4.497733 
O 	 -0.107060 	 5.673956 	 3.684847 
O 	 6.487026 	 2.796891 	 0.509384 
O 	 -5.587538 	 2.013823 	 -2.319914 
O 	 -2.354039 	 1.105827 	 -1.039484 
O 	 -4.949704 	 -4.285943 	 -1.963789 
O 	 -1.091257 	 -1.588650 	 -1.034631 
O 	 4.269503 	 5.452376 	 -3.832081 
O 	 6.633690 	 -5.290276 	 -5.500951 
O 	 -1.182800 	 4.263794 	 -6.858609 
O 	 -2.118147 	 -5.686927 	 3.937884 
O 	 -4.881158 	 -3.197210 	 3.313142 
O 	 -2.249212 	 -3.984572 	 -2.648036 
O 	 5.015540 	 -2.603655 	 1.033718 
O 	 4.103596 	 2.487854 	 -1.097478 
O 	 0.922219 	 -6.876664 	 2.828103 
O 	 4.387378 	 2.971070 	 5.559385 
O 	 3.195083 	 7.288969 	 -1.303024 
O 	 5.325222 	 0.282767 	 1.582032 
O 	 5.400912 	 4.565363 	 -6.366131 
O 	 1.439315 	 5.167937 	 -4.266116 
O 	 6.429452 	 3.913421 	 -2.618398 
O 	 -1.981721 	 5.220620 	 -0.429614 
O 	 -2.123626 	 2.224933 	 4.901252 
O 	 1.890811 	 -0.423219 	 2.369401 
O 	 -3.280304 	 -3.443955 	 1.060497 
O 	 1.041638 	 1.792087 	 6.397633 
O 	 7.290259 	 -1.833308 	 -6.995274 
O 	 3.498415 	 -6.653165 	 1.538560 
O 	 -2.549914 	 -0.006402 	 3.094633 
O 	 -0.865801 	 6.713488 	 -2.964645 
O 	 6.754024 	 -4.635603 	 1.912726 
O 	 -7.154657 	 -1.876753 	 2.253627 
O 	 -4.209953 	 3.290603 	 -3.970641 
O 	 7.448171 	 0.647154 	 -4.181073 
O 	 -6.396274 	 7.090409 	 -5.687277 
O 	 -0.456316 	 -2.532076 	 1.768847 
O 	 1.754473 	 2.822437 	 -2.616135 
O 	 -0.955087 	 -1.627320 	 -3.902463 
O 	 -2.393678 	 4.569050 	 2.064109 
O 	 1.465973 	 -4.606703 	 4.508043 
O 	 5.610503 	 5.957989 	 -0.301272 
O 	 0.055428 	 -4.734904 	 -1.139299 
O 	 -0.166148 	 -7.174131 	 0.264431 
O 	 -1.332228 	 1.894783 	 1.538527 
O 	 -3.610207 	 -2.577376 	 -7.377495 
O 	 -1.061086 	 -0.197982 	 6.675288 
O 	 3.037964 	 -4.308911 	 -0.273733 
O 	 -4.722948 	 -1.943571 	 -0.507469 
O 	 -6.322509 	 -5.720085 	 0.087924 
O 	 -3.941612 	 2.017390 	 -6.905583 
O 	 -3.772192 	 -5.628744 	 -6.585191 
O 	 5.747473 	 1.455149 	 -6.819546 
O 	 5.768306 	 -5.236059 	 -1.211762 
O 	 -4.733294 	 5.523758 	 -2.098571 
O 	 -5.693358 	 -4.181882 	 -4.509840 
O 	 3.816346 	 -2.512436 	 3.445657 
O 	 -6.884195 	 2.588136 	 2.976874 
O 	 -0.256216 	 7.354311 	 5.945976 
O 	 -6.641176 	 4.328428 	 6.717637 
O 	 -6.122864 	 7.036120 	 5.798308 
O 	 -0.022583 	 2.377081 	 -5.131517 
O 	 1.021926 	 5.098683 	 -1.136798 
O 	 4.728857 	 -2.365228 	 -5.716511 
O 	 -3.122529 	 6.633655 	 -7.427270 
O 	 -4.495074 	 -0.334034 	 -2.712343 
O 	 3.577427 	 2.694570 	 2.159034 
O 	 -6.424805 	 0.908484 	 -7.204528 
O 	 -5.374015 	 -5.806750 	 4.044630 
O 	 6.531546 	 4.065089 	 4.551830 
O 	 2.745208 	 0.973637 	 -5.527664 
O 	 -0.675660 	 -4.716342 	 6.140626 
O 	 1.260006 	 0.004112 	 -3.152547 
O 	 2.870646 	 -3.722355 	 -3.133811 
O 	 2.954853 	 -0.149713 	 -0.664999 
O 	 -2.741224 	 5.545730 	 -4.860123 
O 	 1.651157 	 -1.993151 	 -5.362578 
O 	 1.832372 	 4.546206 	 5.773437 
O 	 -6.037106 	 7.051511 	 2.141366 
O 	 5.197458 	 -0.690707 	 -3.473668 
O 	 2.447987 	 5.878929 	 -6.822773 
O 	 -1.137814 	 -4.343628 	 -5.587063 
O 	 2.105095 	 -1.760340 	 6.054653 
O 	 -1.833108 	 0.380123 	 -5.676628 
O 	 -5.214851 	 0.013239 	 1.663482 
O 	 -4.175085 	 -1.196707 	 5.093016 
O 	 -4.808237 	 4.852130 	 3.554773 
O 	 -6.051847 	 -4.696010 	 6.845970 
O 	 -3.742676 	 4.185535 	 6.246720 
O 	 -5.716347 	 -1.453488 	 -4.780486 
O 	 -1.858236 	 3.145522 	 -2.646165 
O 	 5.749126 	 -5.438130 	 6.467754 
O 	 2.103098 	 -4.243118 	 7.360848 
O 	 1.028143 	 2.018259 	 3.245058 
O 	 -3.346708 	 -6.855124 	 -2.824394 
O 	 -4.492046 	 2.279980 	 0.222164 
K 	 5.199123 	 5.068225 	 2.074393 
