333
conformation = 15
H 	 4.746889 	 -7.409291 	 -3.222382 
H 	 5.104336 	 -6.098332 	 -2.617560 
H 	 1.242183 	 4.769409 	 2.021933 
H 	 2.380008 	 3.808625 	 1.380274 
H 	 6.964643 	 -7.235274 	 4.245110 
H 	 6.545017 	 -6.416628 	 3.029875 
H 	 2.295555 	 -6.426543 	 -4.827059 
H 	 3.821543 	 -6.294094 	 -4.877667 
H 	 5.773903 	 6.047876 	 7.073845 
H 	 5.245487 	 6.363812 	 5.713999 
H 	 3.342001 	 5.574298 	 4.886460 
H 	 3.856875 	 7.003566 	 4.437911 
H 	 -5.746801 	 3.887213 	 -4.833698 
H 	 -6.235234 	 5.314464 	 -5.155732 
H 	 5.339382 	 -0.155964 	 5.021128 
H 	 6.764378 	 0.264420 	 4.535573 
H 	 -6.018140 	 5.723748 	 -1.097456 
H 	 -6.543955 	 6.435906 	 0.224228 
H 	 6.852343 	 -2.063062 	 4.606495 
H 	 -6.779624 	 -2.890092 	 4.887671 
H 	 0.151535 	 -6.433354 	 -3.650845 
H 	 -0.132612 	 -5.201945 	 -4.558121 
H 	 -5.537300 	 -0.134076 	 4.953869 
H 	 -6.199780 	 1.129553 	 4.162008 
H 	 -0.898434 	 -2.014186 	 4.132366 
H 	 -1.010627 	 -1.493051 	 5.625159 
H 	 3.441639 	 -0.550949 	 6.541204 
H 	 4.472596 	 0.553610 	 7.246425 
H 	 -1.927294 	 -6.461414 	 0.272983 
H 	 -3.027703 	 -5.499466 	 0.587846 
H 	 3.145316 	 -5.712247 	 4.489739 
H 	 4.437582 	 -5.844197 	 5.247175 
H 	 0.041400 	 6.496918 	 3.214430 
H 	 -0.833821 	 5.278037 	 3.109840 
H 	 7.206505 	 2.749518 	 1.093988 
H 	 6.036196 	 2.002706 	 0.619838 
H 	 -5.050522 	 2.557134 	 -3.109696 
H 	 -6.380657 	 1.719361 	 -2.701963 
H 	 -3.175039 	 1.371215 	 -0.733555 
H 	 -2.040174 	 1.836710 	 -1.741660 
H 	 -5.397699 	 -4.130628 	 -2.833887 
H 	 -5.060150 	 -3.479728 	 -1.439753 
H 	 -1.757238 	 -0.849829 	 -0.995417 
H 	 -1.544425 	 -2.379880 	 -1.237920 
H 	 4.625803 	 5.022788 	 -3.081841 
H 	 3.338194 	 5.409567 	 -3.737706 
H 	 6.253255 	 -5.606418 	 -6.343750 
H 	 6.173518 	 -5.727709 	 -4.781576 
H 	 -1.431663 	 4.488516 	 7.016396 
H 	 -1.838512 	 4.623486 	 -6.436332 
H 	 -1.970809 	 -6.659170 	 4.168516 
H 	 -3.065390 	 -5.631235 	 3.559896 
H 	 -4.250334 	 -3.255369 	 2.450407 
H 	 -5.110277 	 -4.135540 	 3.469375 
H 	 -1.854449 	 -4.599360 	 -1.950250 
H 	 -3.247244 	 -4.097283 	 -2.521006 
H 	 4.449019 	 -2.939558 	 0.233077 
H 	 4.382115 	 -2.527294 	 1.767753 
H 	 4.673882 	 2.658502 	 -1.982443 
H 	 4.301657 	 3.193685 	 -0.606665 
H 	 1.092381 	 -6.056020 	 3.281993 
H 	 1.897997 	 -6.968309 	 2.478075 
H 	 4.223970 	 2.049579 	 5.358870 
H 	 3.481963 	 3.407483 	 5.529176 
H 	 2.843438 	 -7.459937 	 -0.433287 
H 	 2.520832 	 6.482396 	 -1.577604 
H 	 5.102711 	 -0.639599 	 1.114237 
H 	 5.615949 	 0.105316 	 2.453636 
H 	 6.201660 	 4.485182 	 -5.816749 
H 	 4.710149 	 4.810997 	 -5.773540 
H 	 1.279852 	 4.247263 	 -4.084461 
H 	 0.627129 	 5.694797 	 -4.059395 
H 	 6.800651 	 3.894507 	 -1.766115 
H 	 7.124650 	 4.290904 	 -3.324368 
H 	 -2.694642 	 5.278658 	 -1.090588 
H 	 -1.389856 	 4.604736 	 -1.002590 
H 	 -2.592312 	 1.910382 	 5.710286 
H 	 -2.519136 	 1.599508 	 4.203790 
H 	 1.828873 	 0.506210 	 2.396159 
H 	 0.896842 	 -0.751838 	 2.316674 
H 	 -3.558250 	 -2.820785 	 0.407488 
H 	 -2.303199 	 -3.169583 	 1.301327 
H 	 1.228376 	 2.637561 	 6.502350 
H 	 1.885048 	 1.279975 	 6.714746 
H 	 7.281598 	 -1.891334 	 6.891528 
H 	 -7.221333 	 -2.795184 	 -6.958857 
H 	 3.941865 	 -6.180887 	 2.276162 
H 	 3.413607 	 -5.937784 	 0.830386 
H 	 -2.638087 	 -0.507433 	 3.856269 
H 	 -3.498170 	 -0.056116 	 2.681096 
H 	 -0.550041 	 6.508865 	 -2.113912 
H 	 -1.686633 	 7.167175 	 -3.107686 
H 	 5.914707 	 -4.092703 	 1.751812 
H 	 7.133899 	 -4.725306 	 0.954689 
H 	 -6.418649 	 -2.528636 	 2.536733 
H 	 7.179337 	 -2.496881 	 1.831054 
H 	 -2.711285 	 3.175860 	 -3.281152 
H 	 -4.078187 	 2.783133 	 -4.825648 
H 	 6.842982 	 -0.118467 	 -3.845478 
H 	 6.848334 	 1.194177 	 -4.722318 
H 	 -5.719484 	 -7.124280 	 -5.871347 
H 	 -7.205179 	 -7.221630 	 -5.503730 
H 	 0.019831 	 -3.317507 	 1.343557 
H 	 -0.747632 	 -1.932544 	 0.981448 
H 	 1.277003 	 1.940629 	 -2.756044 
H 	 2.525279 	 2.473836 	 -2.110741 
H 	 -0.168136 	 -1.091180 	 -3.457672 
H 	 -1.443039 	 -2.174064 	 -3.301994 
H 	 -2.165702 	 3.549419 	 1.901997 
H 	 -2.224367 	 4.965579 	 1.077849 
H 	 2.069420 	 -3.905874 	 4.626784 
H 	 0.774445 	 -4.636129 	 5.192487 
H 	 5.078050 	 6.576783 	 -0.897376 
H 	 6.550403 	 5.893272 	 -0.528937 
H 	 -0.057753 	 -5.749676 	 -1.123200 
H 	 0.344619 	 -4.599737 	 -2.100545 
H 	 -0.567098 	 6.862310 	 0.153287 
H 	 0.150264 	 -6.987644 	 1.144262 
H 	 -1.293280 	 1.745117 	 0.550286 
H 	 -1.808818 	 1.112622 	 1.853479 
H 	 -4.111976 	 -2.086088 	 -6.694147 
H 	 -3.705319 	 -3.529494 	 -7.317662 
H 	 -0.415896 	 0.477244 	 6.635853 
H 	 -1.301757 	 -0.203352 	 -7.306357 
H 	 3.394853 	 -4.668321 	 -1.102557 
H 	 2.040352 	 -4.347045 	 -0.280444 
H 	 -4.977479 	 -1.265539 	 0.169807 
H 	 -4.474062 	 -1.329250 	 -1.265304 
H 	 -5.764311 	 -5.247470 	 -0.515457 
H 	 -5.678172 	 -6.295072 	 0.666846 
H 	 -4.710871 	 1.383577 	 -7.178597 
H 	 -3.185755 	 1.352621 	 -6.686971 
H 	 -2.960711 	 -5.231150 	 -6.349382 
H 	 -3.580427 	 -6.228950 	 -7.384716 
H 	 6.663503 	 1.386192 	 -7.123767 
H 	 5.388683 	 2.402661 	 -7.113905 
H 	 5.460788 	 -4.764388 	 -0.443290 
H 	 6.366712 	 -5.947756 	 -0.876104 
H 	 -4.964462 	 4.830775 	 -2.843338 
H 	 -4.350410 	 6.299015 	 -2.663048 
H 	 -6.438955 	 -4.660458 	 -4.902882 
H 	 -5.789290 	 -3.224087 	 -4.652565 
H 	 3.125282 	 -1.822712 	 3.345044 
H 	 4.456919 	 -2.041723 	 3.971508 
H 	 -6.213331 	 3.328120 	 2.952790 
H 	 7.401705 	 2.975814 	 3.577193 
H 	 -0.296969 	 6.562900 	 5.308314 
H 	 -0.580499 	 7.108917 	 6.829957 
H 	 -5.666224 	 4.147208 	 6.615637 
H 	 -6.844457 	 4.388627 	 -7.283736 
H 	 -5.575964 	 6.660041 	 6.463010 
H 	 -6.863329 	 6.360902 	 5.791577 
H 	 0.833916 	 1.954341 	 -5.329974 
H 	 -0.145171 	 3.032643 	 -5.937588 
H 	 1.122013 	 4.247069 	 -1.548360 
H 	 1.292734 	 5.009583 	 -0.135803 
H 	 5.445154 	 -2.327333 	 -6.357927 
H 	 4.974220 	 -3.199095 	 -5.244598 
H 	 -3.191738 	 6.470343 	 -6.521657 
H 	 -3.130045 	 5.736596 	 7.039101 
H 	 -4.885192 	 0.624092 	 -2.516469 
H 	 -3.549609 	 -0.134230 	 -2.919112 
H 	 4.071940 	 1.838960 	 1.768210 
H 	 3.101654 	 2.454906 	 2.886485 
H 	 -6.538547 	 0.781254 	 6.639034 
H 	 -6.611791 	 0.015213 	 -6.935942 
H 	 -5.596188 	 -6.660032 	 3.418172 
H 	 -5.221095 	 -6.229643 	 4.893284 
H 	 5.770063 	 3.503454 	 4.593149 
H 	 7.066576 	 3.929522 	 5.343435 
H 	 3.693383 	 1.207805 	 -5.248718 
H 	 2.828109 	 0.033171 	 -5.727335 
H 	 -0.956642 	 -3.889778 	 5.697298 
H 	 -1.139434 	 -5.419853 	 5.683791 
H 	 1.955237 	 -0.037017 	 -2.423670 
H 	 1.933148 	 0.152440 	 -3.945850 
H 	 2.286733 	 -3.137896 	 -3.864840 
H 	 2.470288 	 -4.552744 	 -3.221859 
H 	 3.539530 	 0.576904 	 -0.783978 
H 	 2.634352 	 -0.119327 	 0.191640 
H 	 -1.936932 	 5.614233 	 -4.297287 
H 	 -3.354318 	 4.935623 	 -4.399294 
H 	 0.636321 	 -2.180773 	 -5.195845 
H 	 1.867199 	 -2.157582 	 -6.235594 
H 	 1.121796 	 4.846415 	 5.202246 
H 	 1.899908 	 5.189010 	 6.588881 
H 	 -5.520408 	 6.131831 	 2.282031 
H 	 -6.868991 	 6.947318 	 2.411807 
H 	 5.279556 	 -1.422236 	 -2.874553 
H 	 4.841218 	 -1.095220 	 -4.313438 
H 	 2.066239 	 5.736822 	 -5.949791 
H 	 2.625158 	 6.857452 	 -6.892444 
H 	 -0.726598 	 -3.963489 	 -6.435795 
H 	 -1.531931 	 -3.528034 	 -5.239862 
H 	 2.279267 	 -2.585666 	 6.401979 
H 	 1.191561 	 -1.809419 	 5.683088 
H 	 -1.118654 	 1.029245 	 -5.479784 
H 	 -1.744860 	 -0.400280 	 -5.081682 
H 	 -6.149202 	 -0.363600 	 1.947308 
H 	 -5.327723 	 0.879888 	 1.311246 
H 	 -4.362397 	 -1.962989 	 4.483004 
H 	 -3.842430 	 -1.634483 	 5.903546 
H 	 -4.819022 	 4.942436 	 4.554572 
H 	 -3.874089 	 4.803745 	 3.345779 
H 	 -5.353040 	 -5.023442 	 -7.380339 
H 	 -5.619990 	 -4.893990 	 6.017067 
H 	 -3.676054 	 3.456498 	 6.956767 
H 	 -3.367580 	 3.736445 	 5.411521 
H 	 -6.316768 	 -0.881123 	 -5.186811 
H 	 -5.151092 	 -0.917277 	 -4.164886 
H 	 -1.084315 	 3.016656 	 -3.400455 
H 	 -5.118237 	 2.512747 	 -0.537607 
H 	 6.642319 	 -5.053498 	 6.176111 
H 	 5.870139 	 -6.424146 	 6.438535 
H 	 2.698500 	 -4.646242 	 -6.877140 
H 	 1.494603 	 -5.005263 	 7.029719 
H 	 0.959748 	 1.843664 	 4.104463 
H 	 0.147490 	 2.050396 	 2.773381 
H 	 -3.281254 	 -6.272388 	 -2.115167 
H 	 -3.458455 	 -6.117200 	 -3.596446 
H 	 -4.168036 	 3.099257 	 0.623531 
O 	 5.008867 	 -6.519811 	 -3.524273 
O 	 1.909621 	 4.667385 	 1.286185 
O 	 6.696632 	 -7.359192 	 3.315805 
O 	 3.043129 	 -6.437131 	 -5.431619 
O 	 5.961120 	 6.640672 	 6.310427 
O 	 3.977587 	 6.015567 	 4.324804 
O 	 -6.572685 	 4.390752 	 -5.109450 
O 	 5.974318 	 -0.220857 	 4.260779 
O 	 -6.697226 	 5.717330 	 -0.375041 
O 	 7.256627 	 -2.698460 	 5.255634 
O 	 0.588874 	 -5.691129 	 -4.103293 
O 	 -6.253876 	 0.549604 	 4.952278 
O 	 -0.653036 	 -2.237417 	 5.029443 
O 	 4.051823 	 0.234581 	 6.426315 
O 	 -2.875572 	 -6.326059 	 0.099284 
O 	 3.962528 	 -6.203216 	 4.473032 
O 	 -0.100440 	 5.668583 	 3.673568 
O 	 6.502055 	 2.836928 	 0.429408 
O 	 -5.565355 	 1.988064 	 -2.300629 
O 	 -2.278162 	 1.120328 	 -1.056919 
O 	 -5.021292 	 -4.346350 	 -1.935421 
O 	 -1.098735 	 -1.583389 	 -1.041308 
O 	 4.304457 	 5.435005 	 -3.859620 
O 	 6.645967 	 -5.309538 	 -5.513104 
O 	 -1.153401 	 4.253161 	 -6.976215 
O 	 -2.153149 	 -5.706612 	 3.897688 
O 	 -4.885349 	 -3.158113 	 3.257654 
O 	 -2.263591 	 -4.072121 	 -2.693819 
O 	 5.003457 	 -2.681310 	 0.999649 
O 	 4.049231 	 2.504100 	 -1.225789 
O 	 0.964634 	 -6.873027 	 2.810576 
O 	 4.420501 	 2.986051 	 5.533217 
O 	 3.113947 	 7.240760 	 -1.353390 
O 	 5.315927 	 0.229318 	 1.505051 
O 	 5.441445 	 4.608013 	 -6.450854 
O 	 1.441753 	 5.175409 	 -4.289192 
O 	 6.444054 	 3.940490 	 -2.686691 
O 	 -1.913558 	 5.257590 	 -0.515324 
O 	 -2.133918 	 2.235770 	 4.857532 
O 	 1.832383 	 -0.492325 	 2.335793 
O 	 -3.220368 	 -3.480183 	 1.031318 
O 	 1.055767 	 1.719483 	 6.363547 
O 	 7.290008 	 -1.905597 	 -7.016248 
O 	 3.518743 	 -6.612514 	 1.526352 
O 	 -2.581509 	 0.021703 	 2.995739 
O 	 -0.861031 	 6.667114 	 -3.027494 
O 	 6.758738 	 -4.599143 	 1.899440 
O 	 -7.113396 	 -1.864043 	 2.214882 
O 	 -4.245209 	 3.268417 	 -3.997130 
O 	 7.462686 	 0.640518 	 -4.194080 
O 	 -6.428714 	 7.114736 	 -5.762406 
O 	 -0.411729 	 -2.527093 	 1.696446 
O 	 1.759741 	 2.777802 	 -2.664966 
O 	 -0.907580 	 -1.624608 	 -3.932236 
O 	 -2.359445 	 4.528158 	 2.028697 
O 	 1.497936 	 -4.659710 	 4.455978 
O 	 5.594680 	 6.000882 	 -0.301217 
O 	 -0.023315 	 -4.755325 	 -1.186822 
O 	 -0.151650 	 -7.148950 	 0.192621 
O 	 -1.286828 	 1.911611 	 1.501975 
O 	 -3.605973 	 -2.560321 	 -7.414195 
O 	 -1.063794 	 -0.214196 	 6.613589 
O 	 3.033131 	 -4.316098 	 -0.290779 
O 	 -4.737143 	 -1.928308 	 -0.537860 
O 	 -6.293146 	 -5.770141 	 0.126326 
O 	 -3.933332 	 1.984097 	 -6.938170 
O 	 -3.794835 	 -5.642311 	 -6.649636 
O 	 5.724592 	 1.512501 	 -6.868405 
O 	 5.781671 	 -5.256184 	 -1.244611 
O 	 -4.696700 	 5.500506 	 -2.151279 
O 	 -5.668387 	 -4.186056 	 -4.578506 
O 	 3.800723 	 -2.529143 	 3.369939 
O 	 -6.860227 	 2.560406 	 2.964443 
O 	 -0.299867 	 7.366603 	 5.897736 
O 	 -6.640387 	 4.352398 	 6.657634 
O 	 -6.148671 	 7.022685 	 5.756198 
O 	 -0.026139 	 2.330096 	 -5.226596 
O 	 1.050636 	 5.125573 	 -1.122975 
O 	 4.666452 	 -2.363410 	 -5.727319 
O 	 -3.145962 	 6.648269 	 7.407460 
O 	 -4.508110 	 -0.317801 	 -2.798871 
O 	 3.562351 	 2.646198 	 2.037291 
O 	 -6.447937 	 0.893213 	 -7.305390 
O 	 -5.406808 	 -5.847267 	 4.007162 
O 	 6.556440 	 4.086587 	 4.516071 
O 	 2.773989 	 1.004400 	 -5.550177 
O 	 -0.642544 	 -4.690673 	 6.120420 
O 	 1.323260 	 0.000731 	 -3.182531 
O 	 2.826159 	 -3.644601 	 -3.191841 
O 	 2.917560 	 -0.177667 	 -0.728517 
O 	 -2.734166 	 5.512194 	 -4.908495 
O 	 1.581527 	 -1.899298 	 -5.358544 
O 	 1.874002 	 4.568475 	 5.754523 
O 	 -5.968684 	 7.000899 	 2.018682 
O 	 5.234573 	 -0.693293 	 -3.493830 
O 	 2.423138 	 5.896762 	 -6.872972 
O 	 -1.177370 	 -4.349123 	 -5.666285 
O 	 2.126920 	 -1.718825 	 6.011396 
O 	 -1.802268 	 0.331640 	 -5.718117 
O 	 -5.264360 	 -0.001785 	 1.613571 
O 	 -4.137999 	 -1.208495 	 5.076578 
O 	 -4.827480 	 4.866379 	 3.579034 
O 	 -6.019709 	 -4.748544 	 6.870346 
O 	 -3.772608 	 4.148604 	 6.208062 
O 	 -5.699637 	 -1.472905 	 -4.808031 
O 	 -1.837914 	 3.151580 	 -2.782518 
O 	 5.761674 	 -5.450444 	 6.390468 
O 	 2.110099 	 -4.301148 	 7.336416 
O 	 0.999562 	 2.003231 	 3.168529 
O 	 -3.312151 	 -6.803467 	 -2.891364 
O 	 -4.544706 	 2.285421 	 0.223568 
K 	 5.184626 	 5.041733 	 2.010882 
