333
conformation = 28
H 	 4.897946 	 -7.507165 	 -3.416805 
H 	 4.807295 	 -5.986354 	 -2.688038 
H 	 1.329226 	 4.424145 	 2.145459 
H 	 2.461661 	 3.916837 	 1.343461 
H 	 6.778982 	 -7.466010 	 4.155255 
H 	 6.356206 	 -6.451138 	 3.021852 
H 	 2.237114 	 -6.338826 	 -4.800724 
H 	 3.737677 	 -6.444010 	 -4.989027 
H 	 5.829841 	 6.100401 	 7.144601 
H 	 5.263751 	 6.193771 	 5.679359 
H 	 3.135008 	 5.524127 	 4.725328 
H 	 3.694032 	 6.962238 	 4.457582 
H 	 -5.977499 	 3.790837 	 -4.566079 
H 	 -6.451771 	 5.221728 	 -5.100516 
H 	 5.308106 	 -0.293879 	 5.061424 
H 	 6.710796 	 0.140079 	 4.564898 
H 	 -6.152716 	 5.829994 	 -1.095452 
H 	 -6.629801 	 6.410479 	 0.189884 
H 	 6.818163 	 -1.994808 	 4.577134 
H 	 -6.865545 	 -2.816255 	 4.884702 
H 	 -0.049691 	 -6.538086 	 -3.708039 
H 	 -0.160125 	 -5.239493 	 -4.571179 
H 	 -5.509021 	 -0.031899 	 4.919039 
H 	 -6.307211 	 1.109111 	 4.172970 
H 	 -0.993129 	 -2.100580 	 4.125634 
H 	 -0.910993 	 -1.490024 	 5.602466 
H 	 3.352484 	 -0.401812 	 6.767111 
H 	 4.540929 	 0.616723 	 7.097570 
H 	 -2.084647 	 -6.597524 	 0.028599 
H 	 -3.050140 	 -5.478367 	 0.531598 
H 	 3.089791 	 -5.633509 	 4.492806 
H 	 4.558354 	 -5.771123 	 4.996298 
H 	 0.074043 	 6.488816 	 3.406715 
H 	 -0.950178 	 5.183162 	 3.231223 
H 	 7.179537 	 2.953043 	 1.020829 
H 	 6.202210 	 1.885343 	 0.489270 
H 	 -5.162824 	 2.346866 	 -3.060770 
H 	 -6.473370 	 1.573107 	 -2.495470 
H 	 -3.186637 	 1.314017 	 -0.737708 
H 	 -2.099566 	 1.705916 	 -1.777686 
H 	 -5.476966 	 -4.418016 	 -2.799859 
H 	 -5.147660 	 -3.506198 	 -1.489918 
H 	 -1.825671 	 -0.859777 	 -1.039323 
H 	 -1.697000 	 -2.395672 	 -1.165746 
H 	 4.598571 	 4.853836 	 -3.151934 
H 	 3.261440 	 5.350197 	 -3.827985 
H 	 6.107305 	 -5.700968 	 -6.251815 
H 	 6.102921 	 -5.769780 	 -4.718114 
H 	 -1.567257 	 4.215996 	 6.953328 
H 	 -1.833150 	 4.570258 	 -6.439440 
H 	 -2.323039 	 -6.705468 	 4.247080 
H 	 -3.137364 	 -5.725404 	 3.456036 
H 	 -4.327053 	 -3.119173 	 2.468231 
H 	 -5.105757 	 -4.172904 	 3.431302 
H 	 -1.964037 	 -4.499313 	 -1.841487 
H 	 -3.320868 	 -4.021208 	 -2.442751 
H 	 4.182806 	 -2.907472 	 0.348164 
H 	 4.375539 	 -2.772113 	 1.847934 
H 	 4.709409 	 2.481950 	 -1.911414 
H 	 4.132497 	 3.177701 	 -0.682106 
H 	 0.916807 	 -6.156575 	 3.416625 
H 	 1.798640 	 -6.922363 	 2.333618 
H 	 4.103858 	 1.989652 	 5.576682 
H 	 3.475142 	 3.465638 	 5.739168 
H 	 2.841632 	 7.224397 	 -0.390076 
H 	 2.368246 	 6.347827 	 -1.525847 
H 	 4.768840 	 -0.624232 	 1.096279 
H 	 5.409043 	 -0.164736 	 2.389522 
H 	 6.256193 	 4.349272 	 -6.061624 
H 	 4.769087 	 4.750869 	 -5.682824 
H 	 1.199400 	 4.275359 	 -3.972826 
H 	 0.515493 	 5.632088 	 -4.136744 
H 	 6.897168 	 3.664976 	 -1.887676 
H 	 7.053761 	 4.291698 	 -3.307973 
H 	 -2.788034 	 5.440858 	 -1.003174 
H 	 -1.560946 	 4.485057 	 -1.013945 
H 	 -2.426591 	 1.700602 	 5.710962 
H 	 -2.557547 	 1.625263 	 4.123382 
H 	 1.646305 	 0.362907 	 2.568187 
H 	 0.757704 	 -0.874706 	 2.236642 
H 	 -3.497395 	 -2.790075 	 0.570181 
H 	 -2.274806 	 -3.476498 	 1.316393 
H 	 1.181485 	 2.528477 	 6.456887 
H 	 1.789849 	 1.131016 	 6.697526 
H 	 7.291012 	 -2.060131 	 6.909020 
H 	 7.556454 	 -2.875286 	 -6.705744 
H 	 3.914675 	 -6.188077 	 2.312142 
H 	 3.341991 	 -5.855406 	 0.952757 
H 	 -2.851633 	 -0.351237 	 3.893085 
H 	 -3.627642 	 0.009803 	 2.586003 
H 	 -0.776727 	 6.468210 	 -2.134430 
H 	 -1.759805 	 7.112914 	 -2.990675 
H 	 5.907204 	 -4.052123 	 1.649759 
H 	 7.209348 	 -4.871264 	 1.119493 
H 	 -6.375086 	 -2.530362 	 2.315998 
H 	 6.961563 	 -2.355931 	 1.931063 
H 	 -2.715812 	 3.100227 	 -3.408866 
H 	 -4.273397 	 2.822076 	 -4.869734 
H 	 6.643699 	 -0.115863 	 -4.100810 
H 	 7.059419 	 1.188114 	 -4.854002 
H 	 -5.812689 	 -7.148390 	 -5.890190 
H 	 7.558079 	 -7.196917 	 -5.803347 
H 	 -0.122923 	 -3.443611 	 1.374010 
H 	 -0.719028 	 -2.253979 	 0.766541 
H 	 1.105485 	 1.940348 	 -2.880429 
H 	 2.347208 	 2.424940 	 -1.994783 
H 	 -0.262834 	 -1.208688 	 -3.331841 
H 	 -1.440874 	 -2.238474 	 -3.275196 
H 	 -2.149660 	 3.515575 	 1.766666 
H 	 -2.138366 	 4.987850 	 1.208832 
H 	 1.900189 	 -3.919894 	 4.484014 
H 	 0.626104 	 -4.669964 	 5.045780 
H 	 5.077162 	 6.597027 	 -0.873809 
H 	 6.354850 	 5.807306 	 -0.643640 
H 	 -0.193474 	 -5.797200 	 -1.047717 
H 	 0.332503 	 -4.635267 	 -2.018449 
H 	 -0.698124 	 6.883344 	 0.057227 
H 	 0.043931 	 -7.145330 	 1.145712 
H 	 -1.485239 	 1.675457 	 0.582913 
H 	 -1.827547 	 1.178087 	 2.046833 
H 	 -3.986471 	 -2.187763 	 -6.525993 
H 	 -3.987544 	 -3.479230 	 -7.283297 
H 	 -0.476253 	 0.408370 	 6.545447 
H 	 -1.544422 	 -0.279132 	 -7.355492 
H 	 3.003746 	 -4.616110 	 -1.169425 
H 	 1.960877 	 -4.543329 	 -0.190035 
H 	 -5.284347 	 -1.329264 	 0.128691 
H 	 -4.732990 	 -1.378762 	 -1.319447 
H 	 -5.822155 	 -5.753185 	 -0.590163 
H 	 -5.814959 	 -6.342787 	 0.887780 
H 	 -4.877319 	 1.434211 	 -7.005452 
H 	 -3.254855 	 1.229660 	 -6.889131 
H 	 -3.079114 	 -5.378507 	 -6.236787 
H 	 -3.555243 	 -6.522961 	 -7.057024 
H 	 6.576913 	 1.496735 	 -6.922997 
H 	 5.500495 	 2.517833 	 -7.019826 
H 	 5.399674 	 -4.765727 	 -0.439492 
H 	 6.371221 	 -5.925763 	 -0.812348 
H 	 -4.895367 	 4.694937 	 -2.822122 
H 	 -4.515139 	 6.252851 	 -2.716205 
H 	 -6.538181 	 -4.675481 	 -4.905744 
H 	 -5.880577 	 -3.330040 	 -4.893384 
H 	 2.987268 	 -1.875073 	 3.281753 
H 	 4.505812 	 -2.239198 	 3.839875 
H 	 -6.104552 	 3.099658 	 3.012853 
H 	 7.334294 	 3.026589 	 3.471311 
H 	 -0.404845 	 6.471375 	 5.425485 
H 	 -0.761018 	 7.085818 	 6.807614 
H 	 -5.740849 	 4.251904 	 6.673495 
H 	 -6.980259 	 4.456932 	 -7.293733 
H 	 -5.685985 	 6.683788 	 6.511834 
H 	 -7.086868 	 6.459757 	 5.869518 
H 	 0.790955 	 1.997496 	 -5.413827 
H 	 -0.339122 	 2.836803 	 -6.054294 
H 	 0.673171 	 4.305361 	 -1.530574 
H 	 1.323453 	 4.768326 	 -0.204621 
H 	 5.216158 	 -2.440873 	 -6.405584 
H 	 4.679729 	 -3.150065 	 -5.013092 
H 	 -3.347723 	 6.370031 	 -6.542350 
H 	 -3.274713 	 5.790662 	 6.866919 
H 	 -5.034292 	 0.558008 	 -2.626573 
H 	 -3.621776 	 -0.131545 	 -2.626870 
H 	 3.989983 	 1.713381 	 1.716682 
H 	 3.030289 	 2.296017 	 2.774509 
H 	 -6.576225 	 0.750852 	 6.579099 
H 	 -6.899516 	 -0.021988 	 -7.023485 
H 	 -5.518753 	 -6.732615 	 3.404974 
H 	 -5.590617 	 -6.384005 	 4.890554 
H 	 5.619879 	 3.690834 	 4.808068 
H 	 6.988327 	 4.074323 	 5.362763 
H 	 3.690325 	 1.297945 	 -5.518784 
H 	 2.709308 	 0.021054 	 -5.714004 
H 	 -0.954729 	 -3.855939 	 5.767989 
H 	 -1.216040 	 -5.368380 	 5.708943 
H 	 1.694469 	 -0.222114 	 -2.261654 
H 	 1.979618 	 0.176031 	 -3.822910 
H 	 2.135034 	 -3.120452 	 -3.888271 
H 	 2.426983 	 -4.543879 	 -3.380326 
H 	 3.282140 	 0.602696 	 -0.836924 
H 	 2.252207 	 -0.179573 	 0.035668 
H 	 -1.965669 	 5.731810 	 -4.477733 
H 	 -3.244982 	 4.779756 	 -4.298685 
H 	 0.485980 	 -2.093345 	 -5.215664 
H 	 1.679114 	 -2.261068 	 -6.146221 
H 	 1.136331 	 4.877549 	 5.195155 
H 	 1.883850 	 5.153599 	 6.655369 
H 	 -5.608331 	 6.137211 	 2.500790 
H 	 -6.833295 	 7.148737 	 2.447667 
H 	 4.999454 	 -1.525442 	 -2.905227 
H 	 4.764174 	 -1.058759 	 -4.321606 
H 	 1.893331 	 5.545100 	 -6.032069 
H 	 2.353286 	 6.847776 	 -6.778310 
H 	 -0.845132 	 -4.194441 	 -6.556358 
H 	 -1.648486 	 -3.533997 	 -5.279347 
H 	 2.164082 	 -2.520671 	 6.565926 
H 	 1.139434 	 -1.779093 	 5.675511 
H 	 -1.206134 	 0.964021 	 -5.511092 
H 	 -1.641120 	 -0.401211 	 -5.013850 
H 	 -6.320989 	 -0.464156 	 1.693717 
H 	 -5.500579 	 0.797032 	 1.283398 
H 	 -4.415458 	 -1.974419 	 4.461373 
H 	 -3.941263 	 -1.735349 	 5.921736 
H 	 -4.922131 	 4.940409 	 4.605833 
H 	 -4.032385 	 4.787087 	 3.227304 
H 	 -5.373314 	 -5.121427 	 -7.370886 
H 	 -5.727968 	 -4.903905 	 6.090395 
H 	 -3.773171 	 3.323160 	 6.936044 
H 	 -3.592481 	 3.547380 	 5.443457 
H 	 -6.461356 	 -0.960402 	 -5.025562 
H 	 -5.263103 	 -1.055422 	 -4.089587 
H 	 -1.204075 	 3.364789 	 -3.521213 
H 	 -5.243710 	 2.500863 	 -0.486715 
H 	 6.531387 	 -5.025488 	 6.239392 
H 	 5.971253 	 -6.449503 	 6.428828 
H 	 2.419069 	 -5.044532 	 -6.905741 
H 	 1.282026 	 -4.909097 	 7.049172 
H 	 0.569071 	 1.901437 	 4.062361 
H 	 0.110481 	 1.926874 	 2.641783 
H 	 -3.401658 	 -6.344395 	 -2.089577 
H 	 -3.523474 	 -6.172829 	 -3.655599 
H 	 -4.418331 	 3.104602 	 0.654099 
O 	 4.917701 	 -6.537356 	 -3.504612 
O 	 1.836144 	 4.666198 	 1.306088 
O 	 6.665479 	 -7.374786 	 3.215225 
O 	 2.915274 	 -6.514434 	 -5.484790 
O 	 5.825707 	 6.643155 	 6.334205 
O 	 3.889058 	 5.987510 	 4.322034 
O 	 -6.681761 	 4.273674 	 -5.091881 
O 	 5.902616 	 -0.290498 	 4.274030 
O 	 -6.804643 	 5.664911 	 -0.360169 
O 	 7.134265 	 -2.693166 	 5.218226 
O 	 0.466713 	 -5.817644 	 -4.098380 
O 	 -6.343736 	 0.489921 	 4.934982 
O 	 -0.705033 	 -2.284199 	 5.007590 
O 	 3.962495 	 0.267186 	 6.380197 
O 	 -3.004377 	 -6.317617 	 0.031919 
O 	 3.842027 	 -6.211260 	 4.499741 
O 	 -0.193837 	 5.606925 	 3.685800 
O 	 6.432997 	 2.824601 	 0.409159 
O 	 -5.638399 	 1.923851 	 -2.234368 
O 	 -2.276377 	 1.080985 	 -1.022151 
O 	 -5.171655 	 -4.430567 	 -1.853088 
O 	 -1.187758 	 -1.620271 	 -0.969805 
O 	 4.243666 	 5.383820 	 -3.821352 
O 	 6.581040 	 -5.376233 	 -5.462063 
O 	 -1.200963 	 4.201613 	 -7.052118 
O 	 -2.275429 	 -5.766801 	 3.899715 
O 	 -4.971264 	 -3.176510 	 3.246120 
O 	 -2.382460 	 -4.188066 	 -2.695583 
O 	 4.903657 	 -2.792016 	 0.996009 
O 	 3.926824 	 2.487234 	 -1.326954 
O 	 0.942244 	 -6.898540 	 2.825504 
O 	 4.339134 	 2.936729 	 5.545681 
O 	 2.929626 	 7.146087 	 -1.360590 
O 	 5.205759 	 0.157904 	 1.473706 
O 	 5.409280 	 4.606752 	 -6.474293 
O 	 1.360848 	 5.153560 	 -4.273261 
O 	 6.352004 	 3.920930 	 -2.699747 
O 	 -1.930218 	 5.257438 	 -0.585620 
O 	 -2.258966 	 2.219127 	 4.869438 
O 	 1.704055 	 -0.617170 	 2.333702 
O 	 -3.231447 	 -3.565073 	 1.067052 
O 	 1.001130 	 1.599599 	 6.379328 
O 	 7.207919 	 -2.037795 	 -7.009760 
O 	 3.454674 	 -6.611050 	 1.567988 
O 	 -2.728578 	 -0.000174 	 2.944331 
O 	 -0.924061 	 6.590429 	 -3.076190 
O 	 6.661001 	 -4.614628 	 1.948634 
O 	 -7.158105 	 -1.904212 	 2.236799 
O 	 -4.355919 	 3.221440 	 -3.988794 
O 	 7.391289 	 0.601181 	 -4.163905 
O 	 -6.543472 	 7.111506 	 -5.786601 
O 	 -0.472362 	 -2.550328 	 1.686919 
O 	 1.653991 	 2.677351 	 -2.664405 
O 	 -0.949276 	 -1.662451 	 -3.942471 
O 	 -2.411166 	 4.444488 	 2.064428 
O 	 1.461011 	 -4.760286 	 4.444742 
O 	 5.476125 	 6.005330 	 -0.249212 
O 	 -0.183479 	 -4.811276 	 -1.190218 
O 	 -0.229908 	 -7.169059 	 0.174363 
O 	 -1.323396 	 1.893251 	 1.509557 
O 	 -3.669643 	 -2.559714 	 -7.388989 
O 	 -1.154509 	 -0.253282 	 6.621123 
O 	 2.948093 	 -4.385605 	 -0.232779 
O 	 -4.823079 	 -1.919061 	 -0.508496 
O 	 -6.358942 	 -5.855640 	 0.210499 
O 	 -3.984592 	 1.905654 	 -6.926567 
O 	 -3.895304 	 -5.699175 	 -6.676913 
O 	 5.597001 	 1.539352 	 -6.845280 
O 	 5.716748 	 -5.320497 	 -1.215234 
O 	 -4.726167 	 5.440728 	 -2.166798 
O 	 -5.719863 	 -4.233625 	 -4.595294 
O 	 3.677442 	 -2.562710 	 3.356510 
O 	 -6.901119 	 2.498738 	 2.996082 
O 	 -0.432287 	 7.356647 	 5.899415 
O 	 -6.728247 	 4.329620 	 6.657882 
O 	 -6.243498 	 6.951394 	 5.763471 
O 	 -0.108704 	 2.244053 	 -5.267749 
O 	 0.978304 	 5.118687 	 -1.083386 
O 	 4.535674 	 -2.416868 	 -5.702732 
O 	 -3.260708 	 6.632471 	 7.392518 
O 	 -4.563708 	 -0.333642 	 -2.820223 
O 	 3.486098 	 2.545209 	 1.953447 
O 	 -6.571765 	 0.833246 	 -7.360787 
O 	 -5.501702 	 -5.922818 	 4.014304 
O 	 6.512684 	 4.039757 	 4.509016 
O 	 2.727184 	 0.985496 	 -5.520791 
O 	 -0.693258 	 -4.692682 	 6.172242 
O 	 1.306262 	 -0.033080 	 -3.137682 
O 	 2.691077 	 -3.606045 	 -3.199381 
O 	 2.797885 	 -0.243285 	 -0.735592 
O 	 -2.812498 	 5.431915 	 -4.902869 
O 	 1.438980 	 -1.830222 	 -5.301416 
O 	 1.834054 	 4.544222 	 5.795816 
O 	 -5.971823 	 6.900779 	 1.936218 
O 	 5.174954 	 -0.743928 	 -3.458456 
O 	 2.311390 	 5.883279 	 -6.884338 
O 	 -1.321283 	 -4.372911 	 -5.711577 
O 	 2.060184 	 -1.737007 	 6.027056 
O 	 -1.872944 	 0.232787 	 -5.717887 
O 	 -5.380051 	 -0.069854 	 1.616583 
O 	 -4.174006 	 -1.267747 	 5.103169 
O 	 -4.929697 	 4.830881 	 3.645737 
O 	 -6.090866 	 -4.829090 	 6.959150 
O 	 -3.879628 	 4.068386 	 6.230167 
O 	 -5.740874 	 -1.553217 	 -4.822236 
O 	 -1.885967 	 3.121966 	 -2.874516 
O 	 5.688160 	 -5.519069 	 6.379044 
O 	 2.039193 	 -4.391686 	 7.375067 
O 	 0.902919 	 1.959457 	 3.152540 
O 	 -3.356484 	 -6.797894 	 -2.914752 
O 	 -4.689861 	 2.250977 	 0.286735 
K 	 5.082586 	 4.977683 	 2.004874 
