333
conformation = 13
H 	 4.704156 	 -7.395488 	 -3.185272 
H 	 5.142760 	 -6.114374 	 -2.588712 
H 	 1.249843 	 4.805629 	 2.028161 
H 	 2.347057 	 3.755660 	 1.443362 
H 	 6.978795 	 -7.201936 	 4.323132 
H 	 6.574314 	 -6.413681 	 3.066928 
H 	 2.291400 	 -6.432695 	 -4.804331 
H 	 3.821575 	 -6.287151 	 -4.787123 
H 	 5.761846 	 6.037335 	 7.116123 
H 	 5.244691 	 6.385241 	 5.745732 
H 	 3.343082 	 5.612576 	 4.953214 
H 	 3.833820 	 7.001143 	 4.480060 
H 	 -5.748393 	 3.920977 	 -4.837284 
H 	 -6.228379 	 5.330310 	 -5.127534 
H 	 5.310212 	 -0.130971 	 5.056532 
H 	 6.805519 	 0.260010 	 4.564261 
H 	 -6.006737 	 5.726272 	 -1.021799 
H 	 -6.493179 	 6.458150 	 0.288326 
H 	 6.837598 	 -2.078420 	 4.674371 
H 	 -6.770913 	 -2.922966 	 4.944568 
H 	 0.148038 	 -6.433619 	 -3.605931 
H 	 -0.151424 	 -5.219488 	 -4.520916 
H 	 -5.574380 	 -0.147734 	 5.009757 
H 	 -6.198863 	 1.148854 	 4.201451 
H 	 -0.891026 	 -2.014542 	 4.151183 
H 	 -1.018632 	 -1.517540 	 5.656628 
H 	 3.438826 	 -0.576792 	 6.536891 
H 	 4.473839 	 0.532333 	 7.315701 
H 	 -1.907120 	 -6.457084 	 0.353672 
H 	 -3.057938 	 -5.509704 	 0.611465 
H 	 3.105561 	 -5.733938 	 4.554268 
H 	 4.408848 	 -5.855613 	 5.309710 
H 	 0.066397 	 6.501772 	 3.247224 
H 	 -0.860344 	 5.257735 	 3.142060 
H 	 7.199190 	 2.742654 	 1.137175 
H 	 5.986019 	 2.023479 	 0.653785 
H 	 -5.050039 	 2.579075 	 -3.050845 
H 	 -6.401430 	 1.755750 	 -2.706343 
H 	 -3.182656 	 1.392108 	 -0.680092 
H 	 -2.060617 	 1.811400 	 -1.654029 
H 	 -5.415949 	 -4.120600 	 -2.803763 
H 	 -5.078429 	 -3.494815 	 -1.375408 
H 	 -1.741746 	 -0.875564 	 -0.958236 
H 	 -1.560128 	 -2.384541 	 -1.213606 
H 	 4.670466 	 5.018669 	 -3.008440 
H 	 3.345967 	 5.427649 	 -3.704930 
H 	 6.250261 	 -5.581667 	 -6.307321 
H 	 6.139806 	 -5.746385 	 -4.752691 
H 	 -1.429626 	 4.516101 	 7.072933 
H 	 -1.857421 	 4.629039 	 -6.391854 
H 	 -1.952089 	 -6.652100 	 4.187478 
H 	 -3.088769 	 -5.648298 	 3.634777 
H 	 -4.248678 	 -3.306087 	 2.497872 
H 	 -5.108099 	 -4.131035 	 3.506755 
H 	 -1.853051 	 -4.604326 	 -1.929866 
H 	 -3.255785 	 -4.135923 	 -2.463813 
H 	 4.459178 	 -2.948802 	 0.266442 
H 	 4.396946 	 -2.522445 	 1.789964 
H 	 4.654296 	 2.658115 	 -1.958973 
H 	 4.299237 	 3.182941 	 -0.530409 
H 	 1.080488 	 -6.046274 	 3.310117 
H 	 1.902362 	 -7.000197 	 2.534460 
H 	 4.232871 	 2.048201 	 5.394412 
H 	 3.507023 	 3.397224 	 5.545515 
H 	 2.829223 	 -7.452103 	 -0.395183 
H 	 2.523901 	 6.502695 	 -1.522032 
H 	 5.154593 	 -0.653369 	 1.156247 
H 	 5.645843 	 0.132321 	 2.521481 
H 	 6.184921 	 4.501035 	 -5.730539 
H 	 4.715856 	 4.823736 	 -5.762817 
H 	 1.263704 	 4.188835 	 -4.029204 
H 	 0.624052 	 5.685622 	 -3.979178 
H 	 6.791152 	 3.936923 	 -1.749289 
H 	 7.127515 	 4.262424 	 -3.256981 
H 	 -2.708398 	 5.258933 	 -1.041609 
H 	 -1.356345 	 4.615729 	 -0.955263 
H 	 -2.606472 	 1.910153 	 5.749547 
H 	 -2.503897 	 1.601468 	 4.273762 
H 	 1.797461 	 0.501125 	 2.442350 
H 	 0.919451 	 -0.736166 	 2.373611 
H 	 -3.604744 	 -2.859042 	 0.412610 
H 	 -2.330720 	 -3.137155 	 1.361051 
H 	 1.218026 	 2.672202 	 6.544673 
H 	 1.903797 	 1.286428 	 6.758874 
H 	 7.233934 	 -1.840768 	 6.906818 
H 	 -7.200714 	 -2.798945 	 -6.897371 
H 	 3.939102 	 -6.194055 	 2.320647 
H 	 3.418999 	 -5.934520 	 0.877708 
H 	 -2.638556 	 -0.525784 	 3.870085 
H 	 -3.497032 	 -0.083583 	 2.740491 
H 	 -0.543359 	 6.495842 	 -2.039141 
H 	 -1.692462 	 7.180361 	 -3.016407 
H 	 5.901344 	 -4.105633 	 1.819846 
H 	 7.155522 	 -4.736944 	 1.003610 
H 	 -6.435160 	 -2.503855 	 2.622472 
H 	 7.184131 	 -2.507671 	 1.842647 
H 	 -2.701879 	 3.181461 	 -3.216130 
H 	 -4.062196 	 2.765464 	 -4.773392 
H 	 6.848512 	 -0.088316 	 -3.758352 
H 	 6.796829 	 1.193902 	 -4.653556 
H 	 -5.708996 	 -7.138740 	 -5.825249 
H 	 -7.186919 	 -7.244744 	 -5.417700 
H 	 0.024561 	 -3.268429 	 1.388183 
H 	 -0.723906 	 -1.904017 	 1.048548 
H 	 1.271295 	 1.904535 	 -2.711979 
H 	 2.531972 	 2.527697 	 -2.100974 
H 	 -0.172363 	 -1.088975 	 -3.407145 
H 	 -1.416797 	 -2.160315 	 -3.248267 
H 	 -2.160813 	 3.563548 	 1.977695 
H 	 -2.268331 	 4.923303 	 1.135593 
H 	 2.094402 	 -3.880563 	 4.679384 
H 	 0.775208 	 -4.648901 	 5.251696 
H 	 5.054215 	 6.581543 	 -0.885808 
H 	 6.553228 	 5.929142 	 -0.489193 
H 	 -0.034943 	 -5.744149 	 -1.064298 
H 	 0.328056 	 -4.607199 	 -2.060042 
H 	 -0.545716 	 6.832094 	 0.210821 
H 	 0.159681 	 -6.964590 	 1.192383 
H 	 -1.281575 	 1.744604 	 0.576260 
H 	 -1.800421 	 1.114752 	 1.880960 
H 	 -4.150873 	 -2.075583 	 -6.685017 
H 	 -3.684411 	 -3.542732 	 -7.294048 
H 	 -0.403384 	 0.485506 	 6.653497 
H 	 -1.298700 	 -0.219063 	 -7.250536 
H 	 3.422138 	 -4.671042 	 -1.062639 
H 	 2.045037 	 -4.315504 	 -0.278250 
H 	 -4.960393 	 -1.260119 	 0.245338 
H 	 -4.464686 	 -1.326824 	 -1.234494 
H 	 -5.767803 	 -5.184409 	 -0.453983 
H 	 -5.683962 	 -6.284935 	 0.656629 
H 	 -4.692805 	 1.395658 	 -7.142577 
H 	 -3.208484 	 1.368976 	 -6.594533 
H 	 -2.947382 	 -5.224063 	 -6.325848 
H 	 -3.577635 	 -6.197910 	 -7.386960 
H 	 6.666465 	 1.386182 	 -7.121160 
H 	 5.395954 	 2.376063 	 -7.083170 
H 	 5.463117 	 -4.786746 	 -0.420383 
H 	 6.363302 	 -5.945752 	 -0.843481 
H 	 -4.965902 	 4.836169 	 -2.783390 
H 	 -4.347534 	 6.308085 	 -2.584094 
H 	 -6.443742 	 -4.637879 	 -4.854847 
H 	 -5.801432 	 -3.210459 	 -4.571539 
H 	 3.132646 	 -1.834902 	 3.391352 
H 	 4.415347 	 -2.051308 	 4.011869 
H 	 -6.226346 	 3.328872 	 2.982213 
H 	 7.408499 	 2.951215 	 3.634280 
H 	 -0.306478 	 6.571781 	 5.354930 
H 	 -0.573589 	 7.085200 	 6.852268 
H 	 -5.667589 	 4.118367 	 6.649656 
H 	 -6.816069 	 4.362537 	 -7.248374 
H 	 -5.586231 	 6.644473 	 6.508636 
H 	 -6.835435 	 6.345051 	 5.857535 
H 	 0.855857 	 1.940849 	 -5.279683 
H 	 -0.127902 	 3.033848 	 -5.872468 
H 	 1.207162 	 4.261774 	 -1.500602 
H 	 1.265598 	 5.036394 	 -0.131185 
H 	 5.469948 	 -2.258955 	 -6.326608 
H 	 4.944694 	 -3.178959 	 -5.223887 
H 	 -3.171218 	 6.474950 	 -6.501506 
H 	 -3.148879 	 5.751004 	 7.100017 
H 	 -4.875211 	 0.629622 	 -2.451893 
H 	 -3.566919 	 -0.132677 	 -2.921601 
H 	 4.069420 	 1.858685 	 1.815359 
H 	 3.075974 	 2.478031 	 2.946947 
H 	 -6.524319 	 0.764823 	 6.700847 
H 	 -6.573151 	 0.002402 	 -6.912479 
H 	 -5.624131 	 -6.655577 	 3.461617 
H 	 -5.197258 	 -6.263171 	 4.918989 
H 	 5.765856 	 3.495465 	 4.657897 
H 	 7.079114 	 3.915678 	 5.418720 
H 	 3.638046 	 1.182002 	 -5.183596 
H 	 2.827566 	 0.036756 	 -5.689902 
H 	 -0.950888 	 -3.869575 	 5.742795 
H 	 -1.133379 	 -5.461221 	 5.734518 
H 	 1.994510 	 -0.033734 	 -2.426350 
H 	 1.932312 	 0.136475 	 -3.900514 
H 	 2.327870 	 -3.134816 	 -3.806674 
H 	 2.472349 	 -4.546930 	 -3.167982 
H 	 3.562395 	 0.572171 	 -0.713362 
H 	 2.678226 	 -0.116774 	 0.281169 
H 	 -1.962612 	 5.587913 	 -4.223963 
H 	 -3.390073 	 4.918743 	 -4.391069 
H 	 0.643393 	 -2.186657 	 -5.163833 
H 	 1.861962 	 -2.180230 	 -6.203169 
H 	 1.114252 	 4.834590 	 5.238720 
H 	 1.893922 	 5.184733 	 6.638621 
H 	 -5.518880 	 6.157034 	 2.295495 
H 	 -6.941921 	 6.937266 	 2.470192 
H 	 5.294139 	 -1.413340 	 -2.832568 
H 	 4.870505 	 -1.130069 	 -4.232097 
H 	 2.088471 	 5.790493 	 -5.914642 
H 	 2.656145 	 6.866439 	 -6.816073 
H 	 -0.734347 	 -3.984391 	 -6.382796 
H 	 -1.519358 	 -3.571463 	 -5.176863 
H 	 2.297403 	 -2.614258 	 6.425753 
H 	 1.189591 	 -1.797821 	 5.719798 
H 	 -1.126768 	 1.025049 	 -5.424296 
H 	 -1.758847 	 -0.411137 	 -5.037803 
H 	 -6.116497 	 -0.355715 	 2.020677 
H 	 -5.315100 	 0.911095 	 1.349270 
H 	 -4.368698 	 -1.953205 	 4.532579 
H 	 -3.849105 	 -1.619386 	 5.971583 
H 	 -4.814746 	 4.957107 	 4.588049 
H 	 -3.894641 	 4.796466 	 3.417883 
H 	 -5.327655 	 -5.026066 	 -7.322343 
H 	 -5.598286 	 -4.893547 	 6.029380 
H 	 -3.691905 	 3.459140 	 6.988275 
H 	 -3.331783 	 3.745956 	 5.458880 
H 	 -6.326947 	 -0.866095 	 -5.151699 
H 	 -5.180034 	 -0.922826 	 -4.131064 
H 	 -1.108434 	 2.938509 	 -3.349911 
H 	 -5.097801 	 2.492285 	 -0.500866 
H 	 6.641333 	 -5.070556 	 6.210728 
H 	 5.858076 	 -6.428795 	 6.485782 
H 	 2.719687 	 -4.609516 	 -6.828009 
H 	 1.511041 	 -5.036971 	 7.078869 
H 	 0.976053 	 1.826354 	 4.143431 
H 	 0.115850 	 2.062843 	 2.836023 
H 	 -3.290292 	 -6.252083 	 -2.059384 
H 	 -3.464592 	 -6.108054 	 -3.514444 
H 	 -4.147353 	 3.104732 	 0.664062 
O 	 5.010672 	 -6.524976 	 -3.479930 
O 	 1.906183 	 4.663723 	 1.331395 
O 	 6.686498 	 -7.363913 	 3.374624 
O 	 3.048014 	 -6.431123 	 -5.381774 
O 	 5.966812 	 6.633026 	 6.352383 
O 	 3.979849 	 6.011482 	 4.369974 
O 	 -6.568556 	 4.400929 	 -5.066247 
O 	 5.969033 	 -0.217181 	 4.304994 
O 	 -6.696764 	 5.714582 	 -0.335130 
O 	 7.262449 	 -2.704546 	 5.303407 
O 	 0.597384 	 -5.678199 	 -4.056573 
O 	 -6.252096 	 0.551297 	 4.999083 
O 	 -0.659015 	 -2.235053 	 5.079436 
O 	 4.051200 	 0.222441 	 6.475919 
O 	 -2.869443 	 -6.332352 	 0.154507 
O 	 3.968933 	 -6.207916 	 4.513200 
O 	 -0.099557 	 5.670650 	 3.715046 
O 	 6.500635 	 2.829151 	 0.480124 
O 	 -5.567272 	 1.991103 	 -2.265854 
O 	 -2.289862 	 1.120569 	 -1.020017 
O 	 -5.009599 	 -4.337873 	 -1.903496 
O 	 -1.098024 	 -1.582665 	 -1.004338 
O 	 4.296726 	 5.437307 	 -3.820609 
O 	 6.644769 	 -5.305771 	 -5.475928 
O 	 -1.157559 	 4.253828 	 -6.919327 
O 	 -2.145637 	 -5.704016 	 3.942052 
O 	 -4.885874 	 -3.162863 	 3.304994 
O 	 -2.258194 	 -4.058061 	 -2.649880 
O 	 5.003910 	 -2.669055 	 1.044967 
O 	 4.058377 	 2.501310 	 -1.166328 
O 	 0.955824 	 -6.874864 	 2.851534 
O 	 4.414925 	 2.985355 	 5.574860 
O 	 3.129016 	 7.248892 	 -1.308569 
O 	 5.317858 	 0.236558 	 1.554140 
O 	 5.432526 	 4.600984 	 -6.401121 
O 	 1.443028 	 5.176314 	 -4.249463 
O 	 6.443333 	 3.935827 	 -2.637950 
O 	 -1.925295 	 5.251596 	 -0.461912 
O 	 -2.130682 	 2.232392 	 4.899941 
O 	 1.841227 	 -0.481000 	 2.379018 
O 	 -3.229650 	 -3.472780 	 1.072089 
O 	 1.051337 	 1.730626 	 6.405574 
O 	 7.290108 	 -1.894102 	 -6.974480 
O 	 3.515117 	 -6.619783 	 1.564712 
O 	 -2.573510 	 0.017598 	 3.049677 
O 	 -0.862773 	 6.673325 	 -2.981182 
O 	 6.758501 	 -4.604069 	 1.936131 
O 	 -7.119444 	 -1.866252 	 2.257688 
O 	 -4.240489 	 3.270063 	 -3.954766 
O 	 7.461835 	 0.639500 	 -4.154383 
O 	 -6.424207 	 7.110635 	 -5.713248 
O 	 -0.417300 	 -2.531091 	 1.742424 
O 	 1.762021 	 2.786458 	 -2.618790 
O 	 -0.916199 	 -1.626256 	 -3.888777 
O 	 -2.364710 	 4.534963 	 2.067195 
O 	 1.490749 	 -4.651716 	 4.501619 
O 	 5.599504 	 5.991773 	 -0.262787 
O 	 -0.010843 	 -4.752644 	 -1.142121 
O 	 -0.153854 	 -7.152962 	 0.240658 
O 	 -1.295236 	 1.907306 	 1.546344 
O 	 -3.608482 	 -2.566409 	 -7.370505 
O 	 -1.063560 	 -0.212909 	 6.659679 
O 	 3.032775 	 -4.314189 	 -0.252679 
O 	 -4.735336 	 -1.934747 	 -0.497396 
O 	 -6.296819 	 -5.764204 	 0.158169 
O 	 -3.937094 	 1.988478 	 -6.895988 
O 	 -3.792382 	 -5.640515 	 -6.599888 
O 	 5.728598 	 1.502769 	 -6.824236 
O 	 5.778362 	 -5.252373 	 -1.201548 
O 	 -4.703954 	 5.503604 	 -2.107459 
O 	 -5.672931 	 -4.186978 	 -4.531139 
O 	 3.805851 	 -2.527294 	 3.419302 
O 	 -6.865794 	 2.565666 	 3.003891 
O 	 -0.292818 	 7.363093 	 5.942531 
O 	 -6.641468 	 4.348706 	 6.704007 
O 	 -6.145552 	 7.027356 	 5.798407 
O 	 -0.027841 	 2.338836 	 -5.175213 
O 	 1.047063 	 5.119054 	 -1.084495 
O 	 4.676448 	 -2.366940 	 -5.686094 
O 	 -3.141977 	 6.643667 	 7.456230 
O 	 -4.507732 	 -0.322550 	 -2.749116 
O 	 3.564016 	 2.652502 	 2.094585 
O 	 -6.443776 	 0.897028 	 -7.251143 
O 	 -5.402850 	 -5.839135 	 4.050230 
O 	 6.550025 	 4.085467 	 4.557141 
O 	 2.770834 	 0.999937 	 -5.509115 
O 	 -0.648912 	 -4.696051 	 6.158118 
O 	 1.309286 	 -0.000368 	 -3.141718 
O 	 2.831591 	 -3.658586 	 -3.146909 
O 	 2.922629 	 -0.175186 	 -0.684864 
O 	 -2.733748 	 5.518500 	 -4.864572 
O 	 1.592297 	 -1.915639 	 -5.322199 
O 	 1.866887 	 4.564508 	 5.793212 
O 	 -5.976656 	 7.007299 	 2.076349 
O 	 5.228804 	 -0.692511 	 -3.455466 
O 	 2.426349 	 5.888975 	 -6.828083 
O 	 -1.169680 	 -4.346768 	 -5.615799 
O 	 2.122553 	 -1.724869 	 6.054832 
O 	 -1.805606 	 0.340578 	 -5.674491 
O 	 -5.259394 	 -0.000467 	 1.659089 
O 	 -4.144771 	 -1.207479 	 5.114975 
O 	 -4.823532 	 4.863941 	 3.610698 
O 	 -6.027306 	 -4.740157 	 6.902532 
O 	 -3.768435 	 4.154311 	 6.251361 
O 	 -5.702387 	 -1.469110 	 -4.763158 
O 	 -1.843823 	 3.150098 	 -2.722835 
O 	 5.759951 	 -5.447308 	 6.438754 
O 	 2.108526 	 -4.292182 	 7.376548 
O 	 1.004905 	 2.004487 	 3.218115 
O 	 -3.317980 	 -6.814974 	 -2.845399 
O 	 -4.536482 	 2.284647 	 0.258537 
K 	 5.187072 	 5.045421 	 2.057633 
