333
conformation = 14
H 	 4.718801 	 -7.398117 	 -3.226028 
H 	 5.129877 	 -6.110299 	 -2.626637 
H 	 1.246171 	 4.794550 	 1.995970 
H 	 2.359379 	 3.771979 	 1.391836 
H 	 6.974514 	 -7.211922 	 4.268861 
H 	 6.564171 	 -6.412876 	 3.025040 
H 	 2.295198 	 -6.431234 	 -4.843287 
H 	 3.821343 	 -6.289207 	 -4.847913 
H 	 5.765001 	 6.040535 	 7.071799 
H 	 5.245359 	 6.378647 	 5.707249 
H 	 3.345492 	 5.601420 	 4.899352 
H 	 3.841430 	 7.002817 	 4.436659 
H 	 -5.747948 	 3.910512 	 -4.866538 
H 	 -6.229468 	 5.324996 	 -5.166487 
H 	 5.318910 	 -0.140021 	 5.015312 
H 	 6.791496 	 0.262316 	 4.524367 
H 	 -6.011291 	 5.724982 	 -1.076684 
H 	 -6.511208 	 6.450131 	 0.236495 
H 	 6.841446 	 -2.072820 	 4.621676 
H 	 -6.775136 	 -2.911961 	 4.896535 
H 	 0.148917 	 -6.433419 	 -3.650505 
H 	 -0.145656 	 -5.213748 	 -4.562696 
H 	 -5.563309 	 -0.142791 	 4.962036 
H 	 -6.199923 	 1.142929 	 4.157819 
H 	 -0.893795 	 -2.014071 	 4.115530 
H 	 -1.016613 	 -1.509602 	 5.616357 
H 	 3.438396 	 -0.570351 	 6.508166 
H 	 4.472760 	 0.540076 	 7.262349 
H 	 -1.913873 	 -6.457948 	 0.297339 
H 	 -3.047007 	 -5.508253 	 0.573224 
H 	 3.120669 	 -5.727072 	 4.502982 
H 	 4.416520 	 -5.852497 	 5.258463 
H 	 0.056246 	 6.497131 	 3.206745 
H 	 -0.853354 	 5.264088 	 3.098926 
H 	 7.199841 	 2.744644 	 1.091536 
H 	 6.003071 	 2.017832 	 0.613030 
H 	 -5.050297 	 2.573029 	 -3.101627 
H 	 -6.391775 	 1.744357 	 -2.733795 
H 	 -3.180997 	 1.384975 	 -0.727899 
H 	 -2.053882 	 1.819358 	 -1.712530 
H 	 -5.409927 	 -4.122563 	 -2.844337 
H 	 -5.072413 	 -3.488916 	 -1.426082 
H 	 -1.746242 	 -0.868065 	 -1.000094 
H 	 -1.552225 	 -2.378827 	 -1.250642 
H 	 4.653967 	 5.021125 	 -3.063760 
H 	 3.345501 	 5.421574 	 -3.745491 
H 	 6.252191 	 -5.589682 	 -6.347427 
H 	 6.151850 	 -5.739620 	 -4.792564 
H 	 -1.431260 	 4.507826 	 7.023431 
H 	 -1.848429 	 4.625550 	 -6.440031 
H 	 -1.956963 	 -6.657293 	 4.152503 
H 	 -3.081858 	 -5.641421 	 3.579067 
H 	 -4.247454 	 -3.290102 	 2.449942 
H 	 -5.109385 	 -4.135135 	 3.464473 
H 	 -1.853391 	 -4.604076 	 -1.965386 
H 	 -3.254764 	 -4.123352 	 -2.512882 
H 	 4.456109 	 -2.946406 	 0.223804 
H 	 4.392724 	 -2.523493 	 1.751778 
H 	 4.661465 	 2.658524 	 -1.998874 
H 	 4.299326 	 3.185331 	 -0.586642 
H 	 1.085363 	 -6.053532 	 3.268050 
H 	 1.902224 	 -6.988789 	 2.486239 
H 	 4.229971 	 2.049764 	 5.351974 
H 	 3.495622 	 3.401313 	 5.509938 
H 	 2.833340 	 -7.454318 	 -0.436992 
H 	 2.522822 	 6.495923 	 -1.570520 
H 	 5.136584 	 -0.648953 	 1.111413 
H 	 5.636964 	 0.124197 	 2.472119 
H 	 6.192122 	 4.495553 	 -5.786688 
H 	 4.712764 	 4.819513 	 -5.794637 
H 	 1.268680 	 4.205955 	 -4.077468 
H 	 0.623209 	 5.690311 	 -4.035693 
H 	 6.793218 	 3.922586 	 -1.785141 
H 	 7.126778 	 4.272639 	 -3.310390 
H 	 -2.702177 	 5.264795 	 -1.087676 
H 	 -1.368484 	 4.612361 	 -1.001259 
H 	 -2.604834 	 1.909189 	 5.710098 
H 	 -2.509307 	 1.601292 	 4.221716 
H 	 1.808602 	 0.503979 	 2.396315 
H 	 0.913123 	 -0.740582 	 2.324824 
H 	 -3.588301 	 -2.847943 	 0.382780 
H 	 -2.319393 	 -3.147129 	 1.311946 
H 	 1.221020 	 2.657205 	 6.500574 
H 	 1.900581 	 1.282711 	 6.715828 
H 	 7.249993 	 -1.857287 	 6.870289 
H 	 -7.207609 	 -2.798470 	 -6.948383 
H 	 3.938886 	 -6.190430 	 2.274608 
H 	 3.417122 	 -5.937055 	 0.831820 
H 	 -2.638688 	 -0.520706 	 3.836690 
H 	 -3.496090 	 -0.074612 	 2.691982 
H 	 -0.543977 	 6.499795 	 -2.091865 
H 	 -1.688776 	 7.174679 	 -3.078575 
H 	 5.904129 	 -4.100667 	 1.767564 
H 	 7.149050 	 -4.733011 	 0.952792 
H 	 -6.429113 	 -2.514313 	 2.564506 
H 	 7.184130 	 -2.503896 	 1.809994 
H 	 -2.704142 	 3.179685 	 -3.266483 
H 	 -4.067329 	 2.771665 	 -4.820619 
H 	 6.844694 	 -0.102073 	 -3.815561 
H 	 6.812682 	 1.195060 	 -4.707269 
H 	 -5.712672 	 -7.133928 	 -5.870484 
H 	 -7.194117 	 -7.236530 	 -5.475749 
H 	 0.021359 	 -3.282587 	 1.346045 
H 	 -0.733454 	 -1.911841 	 0.997431 
H 	 1.272846 	 1.915376 	 -2.756144 
H 	 2.528532 	 2.508929 	 -2.134962 
H 	 -0.167848 	 -1.087132 	 -3.452910 
H 	 -1.426999 	 -2.165476 	 -3.296304 
H 	 -2.162948 	 3.557191 	 1.922867 
H 	 -2.253423 	 4.939710 	 1.083538 
H 	 2.086720 	 -3.888647 	 4.632515 
H 	 0.773003 	 -4.644521 	 5.204899 
H 	 5.060144 	 6.581739 	 -0.921147 
H 	 6.551343 	 5.916581 	 -0.530945 
H 	 -0.042930 	 -5.747674 	 -1.114583 
H 	 0.333940 	 -4.604491 	 -2.104804 
H 	 -0.553760 	 6.840958 	 0.161420 
H 	 0.157073 	 -6.971463 	 1.148601 
H 	 -1.285294 	 1.744846 	 0.538941 
H 	 -1.804835 	 1.111924 	 1.841972 
H 	 -4.138837 	 -2.076148 	 -6.716574 
H 	 -3.690279 	 -3.539645 	 -7.332657 
H 	 -0.410419 	 0.480115 	 6.619133 
H 	 -1.299320 	 -0.213326 	 -7.297130 
H 	 3.414323 	 -4.669846 	 -1.103876 
H 	 2.041651 	 -4.325787 	 -0.307037 
H 	 -4.965950 	 -1.260117 	 0.191466 
H 	 -4.467472 	 -1.327703 	 -1.273491 
H 	 -5.766298 	 -5.204178 	 -0.504367 
H 	 -5.683372 	 -6.287096 	 0.628855 
H 	 -4.699213 	 1.390312 	 -7.185280 
H 	 -3.199259 	 1.362019 	 -6.654955 
H 	 -2.952463 	 -5.226069 	 -6.363716 
H 	 -3.579505 	 -6.207634 	 -7.416676 
H 	 6.665599 	 1.385205 	 -7.152126 
H 	 5.392316 	 2.384099 	 -7.123049 
H 	 5.462050 	 -4.778843 	 -0.457674 
H 	 6.363785 	 -5.946563 	 -0.884560 
H 	 -4.966590 	 4.833276 	 -2.834017 
H 	 -4.347293 	 6.306970 	 -2.641461 
H 	 -6.439190 	 -4.644840 	 -4.899721 
H 	 -5.796536 	 -3.216283 	 -4.627402 
H 	 3.132547 	 -1.831525 	 3.347003 
H 	 4.429258 	 -2.046113 	 3.969697 
H 	 -6.221666 	 3.330721 	 2.942691 
H 	 7.408708 	 2.957990 	 3.583516 
H 	 -0.303047 	 6.568080 	 5.308343 
H 	 -0.576434 	 7.093050 	 6.818217 
H 	 -5.664832 	 4.127558 	 6.608683 
H 	 -6.825377 	 4.371394 	 -7.291202 
H 	 -5.583189 	 6.648544 	 6.463836 
H 	 -6.843203 	 6.350392 	 5.805986 
H 	 0.846176 	 1.945891 	 -5.325961 
H 	 -0.133717 	 3.034820 	 -5.924836 
H 	 1.178202 	 4.258082 	 -1.546010 
H 	 1.274210 	 5.028407 	 -0.161776 
H 	 5.463545 	 -2.282531 	 -6.368610 
H 	 4.955731 	 -3.186758 	 -5.260377 
H 	 -3.178307 	 6.473191 	 -6.539616 
H 	 -3.141868 	 5.746836 	 7.051276 
H 	 -4.878602 	 0.629141 	 -2.502461 
H 	 -3.560951 	 -0.133238 	 -2.950871 
H 	 4.070720 	 1.852624 	 1.768898 
H 	 3.083494 	 2.470705 	 2.899137 
H 	 -6.529485 	 0.770269 	 6.654335 
H 	 -6.585736 	 0.008396 	 -6.950918 
H 	 -5.615571 	 -6.659848 	 3.415675 
H 	 -5.204439 	 -6.251435 	 4.882204 
H 	 5.767998 	 3.497180 	 4.605085 
H 	 7.076066 	 3.918951 	 5.365307 
H 	 3.654840 	 1.189600 	 -5.235608 
H 	 2.828361 	 0.034921 	 -5.732022 
H 	 -0.951920 	 -3.878512 	 5.699208 
H 	 -1.136523 	 -5.449248 	 5.686953 
H 	 1.982724 	 -0.033695 	 -2.456424 
H 	 1.934278 	 0.142103 	 -3.945726 
H 	 2.313299 	 -3.135009 	 -3.856488 
H 	 2.472364 	 -4.548282 	 -3.214853 
H 	 3.554722 	 0.574030 	 -0.766118 
H 	 2.664361 	 -0.116537 	 0.221858 
H 	 -1.951621 	 5.596962 	 -4.276503 
H 	 -3.378981 	 4.924765 	 -4.422757 
H 	 0.638533 	 -2.185719 	 -5.203421 
H 	 1.863879 	 -2.171142 	 -6.241973 
H 	 1.116664 	 4.838292 	 5.197073 
H 	 1.895927 	 5.188518 	 6.594710 
H 	 -5.518294 	 6.146475 	 2.260833 
H 	 -6.919794 	 6.939908 	 2.420987 
H 	 5.289461 	 -1.414546 	 -2.878353 
H 	 4.860647 	 -1.117286 	 -4.287661 
H 	 2.081218 	 5.773428 	 -5.955712 
H 	 2.645777 	 6.865290 	 -6.871642 
H 	 -0.732965 	 -3.977174 	 -6.427869 
H 	 -1.523300 	 -3.557198 	 -5.228836 
H 	 2.291062 	 -2.603375 	 6.387130 
H 	 1.189176 	 -1.802256 	 5.677464 
H 	 -1.123626 	 1.027175 	 -5.472962 
H 	 -1.755098 	 -0.407476 	 -5.083126 
H 	 -6.128978 	 -0.359242 	 1.967795 
H 	 -5.318461 	 0.897052 	 1.307903 
H 	 -4.366367 	 -1.955144 	 4.486963 
H 	 -3.846676 	 -1.624116 	 5.918858 
H 	 -4.815093 	 4.951701 	 4.547695 
H 	 -3.889782 	 4.799241 	 3.365729 
H 	 -5.335245 	 -5.025734 	 -7.370602 
H 	 -5.605304 	 -4.894032 	 5.995074 
H 	 -3.686428 	 3.457592 	 6.950060 
H 	 -3.343851 	 3.743312 	 5.412114 
H 	 -6.320352 	 -0.873557 	 -5.192368 
H 	 -5.169712 	 -0.920657 	 -4.172797 
H 	 -1.098806 	 2.964464 	 -3.396804 
H 	 -5.103747 	 2.498302 	 -0.541463 
H 	 6.642787 	 -5.064047 	 6.168964 
H 	 5.860879 	 -6.426257 	 6.439980 
H 	 2.712889 	 -4.620369 	 -6.874523 
H 	 1.503551 	 -5.027896 	 7.031024 
H 	 0.971986 	 1.832883 	 4.096103 
H 	 0.129435 	 2.058712 	 2.786234 
H 	 -3.287212 	 -6.259589 	 -2.111821 
H 	 -3.462687 	 -6.109329 	 -3.572088 
H 	 -4.152982 	 3.104190 	 0.622034 
O 	 5.009963 	 -6.523280 	 -3.524771 
O 	 1.907243 	 4.664956 	 1.286384 
O 	 6.689834 	 -7.362503 	 3.325010 
O 	 3.046211 	 -6.433116 	 -5.428084 
O 	 5.964875 	 6.635590 	 6.308373 
O 	 3.978895 	 6.012701 	 4.325102 
O 	 -6.570017 	 4.397488 	 -5.110555 
O 	 5.970839 	 -0.218384 	 4.260316 
O 	 -6.696889 	 5.715595 	 -0.378338 
O 	 7.260591 	 -2.702561 	 5.257562 
O 	 0.594491 	 -5.682438 	 -4.102162 
O 	 -6.252632 	 0.550653 	 4.953601 
O 	 -0.657073 	 -2.235837 	 5.032853 
O 	 4.051477 	 0.226627 	 6.429617 
O 	 -2.871577 	 -6.330173 	 0.106238 
O 	 3.966773 	 -6.206307 	 4.469965 
O 	 -0.099677 	 5.670250 	 3.671455 
O 	 6.501114 	 2.831726 	 0.433372 
O 	 -5.566870 	 1.990004 	 -2.307343 
O 	 -2.285997 	 1.120582 	 -1.062276 
O 	 -5.013570 	 -4.340824 	 -1.944049 
O 	 -1.098533 	 -1.583098 	 -1.046705 
O 	 4.299208 	 5.436483 	 -3.863466 
O 	 6.645002 	 -5.307060 	 -5.518330 
O 	 -1.156397 	 4.253689 	 -6.967954 
O 	 -2.148219 	 -5.704723 	 3.897347 
O 	 -4.885851 	 -3.160994 	 3.259437 
O 	 -2.259942 	 -4.062714 	 -2.694507 
O 	 5.003651 	 -2.673134 	 1.000125 
O 	 4.055183 	 2.502315 	 -1.215846 
O 	 0.958573 	 -6.874050 	 2.808189 
O 	 4.416978 	 2.985553 	 5.531108 
O 	 3.123977 	 7.246199 	 -1.353453 
O 	 5.317132 	 0.234059 	 1.507729 
O 	 5.435371 	 4.603354 	 -6.447859 
O 	 1.442660 	 5.176049 	 -4.292639 
O 	 6.443567 	 3.937406 	 -2.684030 
O 	 -1.921478 	 5.253606 	 -0.509573 
O 	 -2.131630 	 2.233569 	 4.855601 
O 	 1.838071 	 -0.484824 	 2.334751 
O 	 -3.226836 	 -3.475141 	 1.028381 
O 	 1.052538 	 1.727235 	 6.361602 
O 	 7.289993 	 -1.897860 	 -7.018165 
O 	 3.516315 	 -6.617222 	 1.522061 
O 	 -2.576233 	 0.019081 	 3.001662 
O 	 -0.862503 	 6.671353 	 -3.026539 
O 	 6.758539 	 -4.602375 	 1.894211 
O 	 -7.117633 	 -1.865406 	 2.213392 
O 	 -4.242144 	 3.269466 	 -3.998768 
O 	 7.462243 	 0.639951 	 -4.197540 
O 	 -6.425742 	 7.111970 	 -5.759576 
O 	 -0.415312 	 -2.529998 	 1.696974 
O 	 1.761337 	 2.783694 	 -2.664055 
O 	 -0.913514 	 -1.625789 	 -3.933177 
O 	 -2.363040 	 4.532681 	 2.024558 
O 	 1.493146 	 -4.654385 	 4.456368 
O 	 5.598065 	 5.994738 	 -0.305439 
O 	 -0.015125 	 -4.753440 	 -1.186833 
O 	 -0.153185 	 -7.151549 	 0.194603 
O 	 -1.292414 	 1.908868 	 1.501542 
O 	 -3.607718 	 -2.564493 	 -7.415042 
O 	 -1.063517 	 -0.213216 	 6.614195 
O 	 3.032877 	 -4.314809 	 -0.295489 
O 	 -4.736008 	 -1.932742 	 -0.540940 
O 	 -6.295555 	 -5.766299 	 0.117779 
O 	 -3.936024 	 1.987173 	 -6.939960 
O 	 -3.793238 	 -5.641116 	 -6.646359 
O 	 5.727269 	 1.506084 	 -6.868950 
O 	 5.779408 	 -5.253648 	 -1.245850 
O 	 -4.701671 	 5.502520 	 -2.151832 
O 	 -5.671698 	 -4.186633 	 -4.576943 
O 	 3.803972 	 -2.527984 	 3.372790 
O 	 -6.864270 	 2.563896 	 2.960980 
O 	 -0.295187 	 7.364319 	 5.897569 
O 	 -6.641325 	 4.350006 	 6.658680 
O 	 -6.146771 	 7.025874 	 5.754368 
O 	 -0.027206 	 2.335807 	 -5.222228 
O 	 1.048256 	 5.121098 	 -1.127211 
O 	 4.672847 	 -2.365643 	 -5.729649 
O 	 -3.143368 	 6.645149 	 7.410095 
O 	 -4.508029 	 -0.321060 	 -2.795684 
O 	 3.563387 	 2.650419 	 2.045513 
O 	 -6.445229 	 0.895681 	 -7.299309 
O 	 -5.404279 	 -5.841675 	 4.006035 
O 	 6.551954 	 4.085955 	 4.513499 
O 	 2.771876 	 1.001564 	 -5.552671 
O 	 -0.646873 	 -4.694019 	 6.115543 
O 	 1.313751 	 -0.000043 	 -3.185216 
O 	 2.829705 	 -3.653996 	 -3.191773 
O 	 2.920824 	 -0.176067 	 -0.729380 
O 	 -2.734058 	 5.516420 	 -4.909265 
O 	 1.588771 	 -1.910203 	 -5.364387 
O 	 1.869174 	 4.565750 	 5.750194 
O 	 -5.974037 	 7.005297 	 2.027174 
O 	 5.230678 	 -0.692886 	 -3.498158 
O 	 2.425200 	 5.891428 	 -6.872962 
O 	 -1.172207 	 -4.347542 	 -5.662588 
O 	 2.124037 	 -1.722856 	 6.010488 
O 	 -1.804518 	 0.337567 	 -5.718868 
O 	 -5.261121 	 -0.000563 	 1.613869 
O 	 -4.142622 	 -1.207877 	 5.072244 
O 	 -4.824838 	 4.864788 	 3.570162 
O 	 -6.024855 	 -4.742956 	 6.861848 
O 	 -3.769935 	 4.152489 	 6.206916 
O 	 -5.701789 	 -1.470157 	 -4.808030 
O 	 -1.842085 	 3.150594 	 -2.772683 
O 	 5.760426 	 -5.448410 	 6.392714 
O 	 2.109079 	 -4.295147 	 7.333331 
O 	 1.002781 	 2.004008 	 3.171845 
O 	 -3.316083 	 -6.811109 	 -2.890361 
O 	 -4.539418 	 2.284883 	 0.216801 
K 	 5.186194 	 5.044193 	 2.012115 
