333
conformation = 57
H 	 4.931019 	 -7.486529 	 -3.524675 
H 	 5.132661 	 -6.166899 	 -2.561463 
H 	 1.423966 	 4.454923 	 2.215787 
H 	 2.549414 	 3.850037 	 1.373961 
H 	 6.631519 	 7.345931 	 3.984453 
H 	 6.680114 	 -6.350274 	 2.893798 
H 	 2.118769 	 -6.391960 	 -5.067570 
H 	 3.574254 	 -6.699284 	 -4.845860 
H 	 5.785735 	 6.111552 	 7.211712 
H 	 5.292780 	 6.332925 	 5.730700 
H 	 3.284182 	 5.542585 	 4.780726 
H 	 3.869509 	 7.008212 	 4.408094 
H 	 -5.746032 	 3.907188 	 -4.671889 
H 	 -6.620312 	 5.158225 	 -5.107658 
H 	 5.497317 	 0.091398 	 5.064382 
H 	 6.938655 	 -0.113277 	 4.610453 
H 	 -5.974051 	 5.536447 	 -0.963435 
H 	 -6.271522 	 5.931423 	 0.494993 
H 	 6.879759 	 -1.833537 	 4.693148 
H 	 -6.821471 	 -2.718643 	 4.747819 
H 	 0.125441 	 -6.789932 	 -3.781087 
H 	 0.009679 	 -5.442450 	 -4.668515 
H 	 -5.410083 	 -0.027582 	 4.717312 
H 	 -6.196446 	 1.230936 	 4.226960 
H 	 -0.825639 	 -2.200527 	 4.120964 
H 	 -0.955849 	 -1.555061 	 5.531531 
H 	 3.614947 	 -0.454054 	 6.558725 
H 	 4.676463 	 0.592600 	 7.140287 
H 	 -2.041876 	 -6.498125 	 0.103877 
H 	 -3.015703 	 -5.288833 	 0.114298 
H 	 3.141732 	 -5.745856 	 4.935026 
H 	 4.665551 	 -5.787484 	 5.090874 
H 	 0.440609 	 6.289238 	 3.339194 
H 	 -0.915627 	 5.399738 	 3.276146 
H 	 7.404255 	 3.118368 	 0.882358 
H 	 6.553796 	 1.926277 	 0.617522 
H 	 -4.991485 	 2.510558 	 -2.779768 
H 	 -6.397951 	 1.872841 	 -2.482064 
H 	 -2.851581 	 1.511837 	 -0.611896 
H 	 -1.704620 	 1.683121 	 -1.598782 
H 	 -5.448802 	 -4.445870 	 -2.679661 
H 	 -5.546201 	 -3.768601 	 -1.198316 
H 	 -1.397867 	 -0.719428 	 -0.856368 
H 	 -1.723205 	 -2.179084 	 -1.159776 
H 	 4.771492 	 4.686821 	 -3.253824 
H 	 3.452119 	 5.347080 	 -3.682499 
H 	 6.201102 	 -5.107928 	 -6.077720 
H 	 6.099566 	 -5.768073 	 -4.629586 
H 	 -1.607863 	 3.755984 	 7.132104 
H 	 -1.487196 	 4.555856 	 -6.429631 
H 	 -2.254255 	 -6.660229 	 4.477136 
H 	 -3.160646 	 -5.639311 	 3.726963 
H 	 -4.068082 	 -3.253072 	 2.583306 
H 	 -5.086318 	 -4.038369 	 3.650622 
H 	 -1.617815 	 -4.591014 	 -2.089386 
H 	 -3.192196 	 -4.283723 	 -2.152135 
H 	 4.164070 	 -3.124191 	 0.500108 
H 	 4.605717 	 -2.861370 	 1.921078 
H 	 4.903871 	 2.391775 	 -1.891909 
H 	 4.371962 	 3.062272 	 -0.693780 
H 	 1.064734 	 -6.159179 	 3.399811 
H 	 2.071779 	 -6.895364 	 2.421000 
H 	 4.108625 	 2.095171 	 5.945016 
H 	 3.700966 	 3.625087 	 5.841809 
H 	 3.074980 	 7.113277 	 -0.355377 
H 	 2.227715 	 6.364056 	 -1.391277 
H 	 4.837453 	 -0.643205 	 1.069395 
H 	 5.526783 	 -0.217390 	 2.371712 
H 	 6.535114 	 4.379591 	 -6.086456 
H 	 5.144113 	 5.093662 	 -5.710781 
H 	 1.582486 	 4.333872 	 -3.674413 
H 	 0.783768 	 5.745543 	 -3.821259 
H 	 7.071359 	 3.707690 	 -1.889048 
H 	 7.049268 	 3.938074 	 -3.477483 
H 	 -2.646566 	 5.654011 	 -0.808289 
H 	 -1.652509 	 4.555282 	 -1.213215 
H 	 -1.653084 	 1.516335 	 5.415019 
H 	 -2.414948 	 1.933687 	 4.035299 
H 	 1.369347 	 -0.122210 	 3.024946 
H 	 1.121087 	 -1.452340 	 2.255779 
H 	 -3.290207 	 -3.023940 	 0.524721 
H 	 -2.137074 	 -3.187281 	 1.522797 
H 	 1.322166 	 2.421756 	 6.278810 
H 	 2.084744 	 1.097701 	 6.537877 
H 	 7.224973 	 -2.690318 	 7.058058 
H 	 -7.007043 	 -2.755998 	 -6.445386 
H 	 4.011611 	 -6.391501 	 2.562415 
H 	 3.788246 	 -5.682682 	 1.237015 
H 	 -3.033442 	 -0.398909 	 3.756745 
H 	 -3.514965 	 -0.014828 	 2.320402 
H 	 -0.586874 	 6.009815 	 -2.347219 
H 	 -1.586640 	 7.123530 	 -2.792791 
H 	 6.322718 	 -4.288559 	 1.271897 
H 	 -7.233222 	 -4.960013 	 1.707907 
H 	 -6.444017 	 -2.640124 	 2.557541 
H 	 7.121533 	 -2.128530 	 1.832359 
H 	 -2.656315 	 3.080094 	 -3.324408 
H 	 -4.170509 	 2.714484 	 -4.759074 
H 	 6.619758 	 0.566800 	 -3.729057 
H 	 7.508177 	 1.282668 	 -4.790261 
H 	 -5.611222 	 -7.217588 	 -5.771568 
H 	 -7.124102 	 -6.976799 	 -5.866344 
H 	 0.348537 	 -3.261124 	 1.781426 
H 	 -0.225985 	 -2.382981 	 0.696869 
H 	 1.476633 	 1.668780 	 -2.797917 
H 	 2.542376 	 2.716237 	 -2.291033 
H 	 -0.040136 	 -1.220979 	 -3.319199 
H 	 -1.084793 	 -2.472930 	 -3.379759 
H 	 -1.675814 	 3.595590 	 2.026629 
H 	 -2.192782 	 4.790368 	 1.257529 
H 	 1.794192 	 -3.918851 	 4.099708 
H 	 0.921886 	 -4.769151 	 5.157364 
H 	 4.943475 	 6.516600 	 -0.843358 
H 	 6.443428 	 6.064764 	 -0.541885 
H 	 0.039120 	 -5.633998 	 -0.602035 
H 	 0.347559 	 -4.960414 	 -1.993012 
H 	 0.083842 	 6.814683 	 -0.067029 
H 	 0.231786 	 -7.063682 	 1.155271 
H 	 -1.303562 	 1.562751 	 0.663483 
H 	 -1.606744 	 1.296492 	 2.193644 
H 	 -4.006004 	 -2.044774 	 -6.515655 
H 	 -4.195197 	 -3.194702 	 -7.322699 
H 	 -0.227251 	 0.294364 	 6.634786 
H 	 -1.304943 	 -0.311473 	 -7.282567 
H 	 2.969972 	 -4.098143 	 -1.033993 
H 	 2.032811 	 -4.317251 	 0.037760 
H 	 -5.068722 	 -1.280488 	 0.335925 
H 	 -4.782317 	 -1.299749 	 -1.278525 
H 	 -5.702837 	 -5.656011 	 -0.394587 
H 	 -5.710194 	 -6.654938 	 0.829651 
H 	 -4.748348 	 1.569891 	 -6.856714 
H 	 -3.254034 	 1.124316 	 -6.478162 
H 	 -3.114401 	 -5.274266 	 -6.080264 
H 	 -3.352623 	 -6.644934 	 -6.894060 
H 	 6.600551 	 1.495980 	 -7.105373 
H 	 5.569694 	 2.660923 	 -6.951192 
H 	 5.467915 	 -4.785792 	 -0.383081 
H 	 6.734744 	 -5.650970 	 -0.734060 
H 	 -4.180875 	 4.742075 	 -2.806986 
H 	 -4.296975 	 6.251202 	 -2.724648 
H 	 -6.445545 	 -4.538653 	 -4.869035 
H 	 -5.667480 	 -3.286403 	 -4.542901 
H 	 3.190920 	 -1.819130 	 3.115891 
H 	 4.411589 	 -2.310822 	 4.083651 
H 	 -5.777549 	 2.946468 	 3.152305 
H 	 7.636611 	 2.986480 	 3.708024 
H 	 -0.430183 	 6.638121 	 5.319804 
H 	 -0.952725 	 7.110054 	 6.754057 
H 	 -5.669037 	 4.248906 	 6.444559 
H 	 -6.568698 	 4.379443 	 -7.164582 
H 	 -5.607676 	 7.052746 	 6.630176 
H 	 -7.051910 	 6.903045 	 6.063437 
H 	 0.938977 	 2.009892 	 -5.467460 
H 	 -0.230082 	 2.821817 	 -6.067867 
H 	 1.190670 	 4.338604 	 -1.537956 
H 	 1.180282 	 4.877967 	 -0.139120 
H 	 5.502823 	 -2.496487 	 -5.957450 
H 	 4.424014 	 -3.240433 	 -5.065572 
H 	 -3.063812 	 6.064168 	 -6.715433 
H 	 -3.480842 	 6.158807 	 6.665476 
H 	 -4.867956 	 0.483377 	 -2.520053 
H 	 -3.383788 	 -0.102065 	 -2.548706 
H 	 4.228199 	 1.606629 	 1.793820 
H 	 2.929734 	 2.092004 	 2.410683 
H 	 -6.347560 	 0.967527 	 6.560830 
H 	 -6.548903 	 -0.159869 	 -7.281393 
H 	 -5.192722 	 -6.290317 	 3.125223 
H 	 -5.965037 	 -6.635017 	 4.501492 
H 	 5.970341 	 3.665239 	 5.128130 
H 	 7.377972 	 4.500048 	 5.131272 
H 	 3.748350 	 1.256412 	 -5.936652 
H 	 2.688128 	 0.104390 	 -5.668169 
H 	 -0.778988 	 -3.771738 	 5.829481 
H 	 -1.091300 	 -5.247327 	 5.885559 
H 	 1.787283 	 -0.353451 	 -2.081988 
H 	 2.201165 	 0.080550 	 -3.654050 
H 	 2.433354 	 -2.712598 	 -3.718360 
H 	 2.605264 	 -4.212747 	 -3.854737 
H 	 3.194426 	 0.651985 	 -0.729635 
H 	 2.267104 	 -0.403962 	 0.051304 
H 	 -2.046531 	 5.705674 	 -4.173240 
H 	 -3.085139 	 4.525883 	 -4.592163 
H 	 0.549577 	 -1.653333 	 -5.019855 
H 	 1.583185 	 -2.528451 	 -5.712938 
H 	 1.274757 	 4.817933 	 5.343393 
H 	 2.069347 	 5.207592 	 6.631667 
H 	 -5.438907 	 6.185877 	 2.641619 
H 	 -6.673467 	 7.075648 	 2.284384 
H 	 5.000344 	 -1.384263 	 -2.686302 
H 	 5.113045 	 -1.251382 	 -4.185567 
H 	 2.010498 	 5.312387 	 -6.186005 
H 	 2.648570 	 6.781321 	 -6.429482 
H 	 -1.300552 	 -4.433214 	 -6.722924 
H 	 -1.287340 	 -3.389384 	 -5.612557 
H 	 2.273339 	 -2.577015 	 6.560931 
H 	 1.344313 	 -1.716598 	 5.678654 
H 	 -1.072677 	 0.847692 	 -5.453913 
H 	 -1.529138 	 -0.539151 	 -5.010354 
H 	 -6.113728 	 -0.492321 	 2.045511 
H 	 -5.499006 	 0.743488 	 1.301764 
H 	 -4.254723 	 -2.048268 	 4.664199 
H 	 -3.858732 	 -1.592435 	 6.099060 
H 	 -4.820268 	 5.324159 	 4.568280 
H 	 -3.974353 	 4.669277 	 3.358264 
H 	 -5.153879 	 -5.278356 	 -7.268342 
H 	 -5.722558 	 -4.748906 	 6.226333 
H 	 -3.885241 	 3.271874 	 7.015992 
H 	 -3.343991 	 3.410325 	 5.641271 
H 	 -6.303842 	 -1.105458 	 -4.700433 
H 	 -4.978952 	 -1.373368 	 -4.098021 
H 	 -1.119320 	 3.093210 	 -3.761249 
H 	 -5.041692 	 2.306961 	 -0.481438 
H 	 6.690107 	 -4.988839 	 6.394554 
H 	 6.147889 	 -6.476937 	 6.440135 
H 	 2.412861 	 -5.340988 	 -6.989122 
H 	 1.265296 	 -4.658962 	 7.152421 
H 	 0.348067 	 2.092686 	 3.884920 
H 	 0.458167 	 2.051352 	 2.395421 
H 	 -3.246671 	 -6.586195 	 -1.976698 
H 	 -3.153759 	 -6.010811 	 -3.509975 
H 	 -4.674051 	 3.239423 	 0.672771 
O 	 5.046982 	 -6.514623 	 -3.492635 
O 	 2.030093 	 4.704502 	 1.456036 
O 	 6.837652 	 -7.333014 	 3.076211 
O 	 2.944822 	 -6.536740 	 -5.564843 
O 	 5.908370 	 6.689008 	 6.415262 
O 	 3.997909 	 6.009905 	 4.363787 
O 	 -6.635520 	 4.180143 	 -4.997946 
O 	 6.012527 	 -0.361410 	 4.332856 
O 	 -6.719142 	 5.649619 	 -0.338553 
O 	 7.226985 	 -2.621371 	 5.189771 
O 	 0.554608 	 -5.936976 	 -4.024193 
O 	 -6.222563 	 0.478207 	 4.928667 
O 	 -0.499639 	 -2.259711 	 5.010390 
O 	 4.108385 	 0.404034 	 6.331217 
O 	 -2.971484 	 -6.234695 	 -0.075268 
O 	 3.927411 	 -6.130699 	 4.526566 
O 	 -0.044043 	 5.543215 	 3.782522 
O 	 6.611091 	 2.867779 	 0.402688 
O 	 -5.543743 	 1.894626 	 -2.092231 
O 	 -2.026810 	 1.076717 	 -0.940758 
O 	 -5.112923 	 -4.497653 	 -1.722564 
O 	 -1.074502 	 -1.624346 	 -0.785740 
O 	 4.428335 	 5.400175 	 -3.755438 
O 	 6.729706 	 -5.448017 	 -5.343253 
O 	 -0.989815 	 4.173770 	 -7.142976 
O 	 -2.222047 	 -5.819826 	 3.919865 
O 	 -4.817737 	 -3.169597 	 3.255091 
O 	 -2.332798 	 -4.179343 	 -2.650828 
O 	 4.967126 	 -2.869428 	 1.017745 
O 	 4.046176 	 2.521891 	 -1.428722 
O 	 1.142269 	 -6.908593 	 2.829106 
O 	 4.418161 	 2.942349 	 5.608144 
O 	 2.907653 	 7.073172 	 -1.319949 
O 	 5.255545 	 0.157547 	 1.454299 
O 	 5.657408 	 4.656486 	 -6.443476 
O 	 1.492106 	 5.174932 	 -4.226139 
O 	 6.488202 	 3.931890 	 -2.661767 
O 	 -1.736521 	 5.352079 	 -0.670846 
O 	 -2.208997 	 2.231719 	 4.938053 
O 	 1.765664 	 -0.731691 	 2.354090 
O 	 -2.969971 	 -3.644555 	 1.195574 
O 	 1.174360 	 1.489072 	 6.428210 
O 	 7.315052 	 -2.174872 	 -6.964619 
O 	 3.613813 	 -6.523586 	 1.684421 
O 	 -2.761070 	 0.051618 	 2.921132 
O 	 -0.793106 	 6.608314 	 -3.114001 
O 	 6.771816 	 -4.613258 	 2.094899 
O 	 -6.997488 	 -1.851909 	 2.300370 
O 	 -4.269592 	 3.226784 	 -3.936471 
O 	 7.566126 	 0.605282 	 -4.101350 
O 	 -6.448766 	 7.182057 	 -5.805186 
O 	 -0.336628 	 -2.560468 	 1.668027 
O 	 1.630097 	 2.661854 	 -2.652255 
O 	 -0.776019 	 -1.665472 	 -3.883924 
O 	 -2.228404 	 4.392820 	 2.180632 
O 	 1.661649 	 -4.800017 	 4.439894 
O 	 5.524351 	 6.103067 	 -0.183532 
O 	 -0.132252 	 -4.801393 	 -1.130817 
O 	 -0.142473 	 -7.164336 	 0.209411 
O 	 -1.130498 	 1.930361 	 1.575981 
O 	 -3.489377 	 -2.495658 	 -7.256064 
O 	 -1.054354 	 -0.202217 	 6.642385 
O 	 3.005722 	 -4.470263 	 -0.134879 
O 	 -4.694539 	 -1.827880 	 -0.446220 
O 	 -6.222643 	 -5.942236 	 0.394471 
O 	 -3.816264 	 1.858942 	 -6.864110 
O 	 -3.741684 	 -5.763295 	 -6.652255 
O 	 5.691436 	 1.711185 	 -6.710890 
O 	 5.886131 	 -5.342806 	 -1.099296 
O 	 -4.481361 	 5.433846 	 -2.166656 
O 	 -5.549469 	 -4.282654 	 -4.589226 
O 	 3.729411 	 -2.564817 	 3.382628 
O 	 -6.650829 	 2.473102 	 3.059751 
O 	 -0.407876 	 -7.490126 	 5.963020 
O 	 -6.617519 	 4.357284 	 6.746998 
O 	 -6.117986 	 6.908967 	 5.814407 
O 	 0.028844 	 2.205311 	 -5.319132 
O 	 1.071315 	 5.162242 	 -1.040648 
O 	 4.555353 	 -2.402849 	 -5.632454 
O 	 -3.198602 	 6.663839 	 7.432066 
O 	 -4.312800 	 -0.313144 	 -2.753944 
O 	 3.666373 	 2.428222 	 1.841110 
O 	 -6.553317 	 0.801461 	 -7.370083 
O 	 -5.345979 	 -5.982592 	 4.080638 
O 	 6.670547 	 4.064220 	 4.536942 
O 	 2.925844 	 1.029576 	 -5.442206 
O 	 -0.500993 	 -4.590497 	 6.333202 
O 	 1.503299 	 -0.033390 	 -2.970002 
O 	 2.719499 	 -3.498464 	 -3.189470 
O 	 2.850788 	 -0.274972 	 -0.697003 
O 	 -2.659788 	 5.373227 	 -4.914774 
O 	 1.525917 	 -1.682935 	 -5.235900 
O 	 2.028932 	 4.546526 	 5.901539 
O 	 -5.695306 	 6.832658 	 1.924535 
O 	 5.276914 	 -0.779180 	 -3.376289 
O 	 2.369922 	 5.931996 	 -6.844755 
O 	 -1.297460 	 -4.369261 	 -5.754198 
O 	 2.224809 	 -1.714351 	 6.130524 
O 	 -1.730645 	 0.140730 	 -5.684025 
O 	 -5.285357 	 -0.106859 	 1.642752 
O 	 -3.955010 	 -1.277464 	 5.150871 
O 	 -4.828424 	 4.841258 	 3.734060 
O 	 -5.972700 	 -4.846973 	 7.140303 
O 	 -3.776972 	 3.976071 	 6.337612 
O 	 -5.523504 	 -1.622816 	 -4.860021 
O 	 -1.698653 	 3.163065 	 -2.964313 
O 	 5.864996 	 -5.534636 	 6.424681 
O 	 2.172415 	 -4.469426 	 -7.375485 
O 	 1.015453 	 1.964031 	 3.207515 
O 	 -3.185857 	 -6.796705 	 -2.912798 
O 	 -4.654084 	 2.296206 	 0.431172 
K 	 5.183224 	 4.954607 	 2.065725 
