333
conformation = 29
H 	 4.903810 	 -7.509782 	 -3.419986 
H 	 4.801908 	 -5.991064 	 -2.685109 
H 	 1.333605 	 4.417667 	 2.148348 
H 	 2.462995 	 3.928357 	 1.336909 
H 	 6.769171 	 -7.467404 	 4.145133 
H 	 6.360734 	 -6.454315 	 3.024820 
H 	 2.230076 	 -6.330501 	 -4.800316 
H 	 3.735176 	 -6.452912 	 -4.990844 
H 	 5.832838 	 6.104025 	 7.144301 
H 	 5.269105 	 6.186341 	 5.678006 
H 	 3.118419 	 5.528165 	 4.723193 
H 	 3.682959 	 6.956248 	 4.457049 
H 	 -5.973099 	 3.791325 	 -4.553177 
H 	 -6.456890 	 5.217446 	 -5.098423 
H 	 5.306358 	 -0.296056 	 5.054578 
H 	 6.717828 	 0.126380 	 4.556498 
H 	 -6.148877 	 5.836927 	 -1.095903 
H 	 -6.621603 	 6.406183 	 0.189693 
H 	 6.813014 	 -1.987999 	 4.582822 
H 	 -6.860683 	 -2.818730 	 4.889398 
H 	 -0.058838 	 -6.537984 	 -3.716952 
H 	 -0.162102 	 -5.247463 	 -4.572647 
H 	 -5.503479 	 -0.033688 	 4.922317 
H 	 -6.315001 	 1.112984 	 4.181209 
H 	 -0.991892 	 -2.103963 	 4.122066 
H 	 -0.907201 	 -1.482840 	 5.603597 
H 	 3.356230 	 -0.390202 	 6.763930 
H 	 4.551567 	 0.620823 	 7.083575 
H 	 -2.091185 	 -6.598115 	 0.020989 
H 	 -3.050118 	 -5.466753 	 0.526132 
H 	 3.087069 	 -5.629920 	 4.502299 
H 	 4.563961 	 -5.764005 	 4.983198 
H 	 0.083376 	 6.487550 	 3.410751 
H 	 -0.943335 	 5.192242 	 3.240769 
H 	 7.186562 	 2.969518 	 1.018122 
H 	 6.210159 	 1.880228 	 0.479683 
H 	 -5.160985 	 2.351771 	 -3.065741 
H 	 -6.482826 	 1.575103 	 -2.493737 
H 	 -3.179198 	 1.316914 	 -0.735675 
H 	 -2.092619 	 1.711351 	 -1.791392 
H 	 -5.477653 	 -4.428833 	 -2.789819 
H 	 -5.158474 	 -3.509461 	 -1.488489 
H 	 -1.826991 	 -0.852278 	 -1.042177 
H 	 -1.710782 	 -2.401853 	 -1.168626 
H 	 4.608045 	 4.844120 	 -3.157933 
H 	 3.257533 	 5.351590 	 -3.833182 
H 	 6.098313 	 -5.697678 	 -6.252719 
H 	 6.098924 	 -5.771118 	 -4.720156 
H 	 -1.575095 	 4.204873 	 6.957267 
H 	 -1.839787 	 4.574505 	 -6.440202 
H 	 -2.332977 	 -6.696224 	 4.246238 
H 	 -3.136389 	 -5.727820 	 3.457192 
H 	 -4.325715 	 -3.126951 	 2.474496 
H 	 -5.096496 	 -4.172211 	 3.422698 
H 	 -1.965177 	 -4.491567 	 -1.841980 
H 	 -3.315209 	 -4.026416 	 -2.435273 
H 	 4.179474 	 -2.905186 	 0.356015 
H 	 4.379188 	 -2.784103 	 1.861315 
H 	 4.705802 	 2.469378 	 -1.908538 
H 	 4.124817 	 3.178462 	 -0.678144 
H 	 0.915797 	 -6.150653 	 3.425295 
H 	 1.796802 	 -6.914668 	 2.335380 
H 	 4.100662 	 1.986900 	 5.591408 
H 	 3.482797 	 3.469782 	 5.746106 
H 	 2.846115 	 7.212159 	 -0.391584 
H 	 2.361686 	 6.344118 	 -1.520859 
H 	 4.761129 	 -0.616586 	 1.088767 
H 	 5.406016 	 -0.162662 	 2.374422 
H 	 6.251702 	 4.349581 	 -6.069337 
H 	 4.781882 	 4.754695 	 -5.676484 
H 	 1.202194 	 4.291605 	 -3.965644 
H 	 0.521960 	 5.624532 	 -4.134082 
H 	 6.909072 	 3.658368 	 -1.891941 
H 	 7.055292 	 4.289071 	 -3.310015 
H 	 -2.791162 	 5.447580 	 -0.999023 
H 	 -1.567349 	 4.482206 	 -1.019778 
H 	 -2.407789 	 1.689832 	 5.691869 
H 	 -2.556410 	 1.621292 	 4.118069 
H 	 1.631327 	 0.355103 	 2.583002 
H 	 0.751984 	 -0.882428 	 2.232275 
H 	 -3.496477 	 -2.788666 	 0.568818 
H 	 -2.277867 	 -3.485438 	 1.322377 
H 	 1.185646 	 2.530862 	 6.452162 
H 	 1.781600 	 1.135133 	 6.689551 
H 	 7.286672 	 -2.065199 	 6.919416 
H 	 7.554169 	 -2.868256 	 -6.687697 
H 	 3.919419 	 -6.192272 	 2.321300 
H 	 3.344121 	 -5.847393 	 0.958629 
H 	 -2.865685 	 -0.345900 	 3.892149 
H 	 -3.635645 	 0.009565 	 2.581795 
H 	 -0.781125 	 6.459417 	 -2.147224 
H 	 -1.759704 	 7.113844 	 -2.980879 
H 	 5.914732 	 -4.053441 	 1.643694 
H 	 7.219698 	 -4.877257 	 1.145204 
H 	 -6.375764 	 -2.530043 	 2.310323 
H 	 6.955052 	 -2.350361 	 1.930295 
H 	 -2.715803 	 3.098835 	 -3.413349 
H 	 -4.277254 	 2.825397 	 -4.872546 
H 	 6.640931 	 -0.101265 	 -4.102441 
H 	 7.076182 	 1.188494 	 -4.853242 
H 	 -5.809312 	 -7.150404 	 -5.891288 
H 	 7.558797 	 -7.196673 	 -5.815849 
H 	 -0.113315 	 -3.457759 	 1.385912 
H 	 -0.708094 	 -2.253014 	 0.764506 
H 	 1.112690 	 1.944115 	 -2.884374 
H 	 2.351125 	 2.427238 	 -1.987962 
H 	 -0.268786 	 -1.215838 	 -3.336433 
H 	 -1.433234 	 -2.242016 	 -3.274775 
H 	 -2.139725 	 3.514706 	 1.769734 
H 	 -2.136421 	 4.992926 	 1.210413 
H 	 1.891019 	 -3.920162 	 4.471799 
H 	 0.633322 	 -4.673716 	 5.035184 
H 	 5.081257 	 6.591375 	 -0.866288 
H 	 6.351690 	 5.809599 	 -0.649494 
H 	 -0.189001 	 -5.793350 	 -1.039839 
H 	 0.332137 	 -4.640819 	 -2.014513 
H 	 -0.688744 	 6.885987 	 0.052373 
H 	 0.041734 	 -7.146080 	 1.137710 
H 	 -1.491294 	 1.669964 	 0.586864 
H 	 -1.821577 	 1.184965 	 2.053228 
H 	 -3.974864 	 -2.180310 	 -6.531568 
H 	 -3.992708 	 -3.473498 	 -7.296684 
H 	 -0.469465 	 0.411538 	 6.541098 
H 	 -1.543405 	 -0.279307 	 -7.362070 
H 	 2.998309 	 -4.604674 	 -1.173781 
H 	 1.964299 	 -4.542062 	 -0.179610 
H 	 -5.287243 	 -1.338265 	 0.119200 
H 	 -4.747970 	 -1.378886 	 -1.320090 
H 	 -5.823147 	 -5.772412 	 -0.584573 
H 	 -5.812627 	 -6.349063 	 0.898300 
H 	 -4.880915 	 1.436351 	 -6.996831 
H 	 -3.262337 	 1.223594 	 -6.889762 
H 	 -3.082815 	 -5.379149 	 -6.231457 
H 	 -3.555209 	 -6.528128 	 -7.040076 
H 	 6.572025 	 1.499513 	 -6.918374 
H 	 5.505954 	 2.525270 	 -7.015146 
H 	 5.399905 	 -4.764051 	 -0.440026 
H 	 6.379620 	 -5.921903 	 -0.810875 
H 	 -4.881060 	 4.687904 	 -2.816679 
H 	 -4.518540 	 6.252223 	 -2.710547 
H 	 -6.544901 	 -4.679139 	 -4.906455 
H 	 -5.875293 	 -3.331538 	 -4.895399 
H 	 2.984136 	 -1.863428 	 3.281529 
H 	 4.503438 	 -2.240594 	 3.836199 
H 	 -6.097626 	 3.085019 	 3.015629 
H 	 7.338137 	 3.030425 	 3.471164 
H 	 -0.408430 	 6.471866 	 5.430524 
H 	 -0.765368 	 7.086251 	 6.797869 
H 	 -5.747942 	 4.256156 	 6.674163 
H 	 -6.977301 	 4.460179 	 -7.288403 
H 	 -5.695479 	 6.681610 	 6.517926 
H 	 -7.092834 	 6.462626 	 5.888124 
H 	 0.798566 	 2.001613 	 -5.419663 
H 	 -0.343627 	 2.827047 	 -6.059373 
H 	 0.663471 	 4.306366 	 -1.540959 
H 	 1.329161 	 4.761903 	 -0.196745 
H 	 5.206226 	 -2.436964 	 -6.399089 
H 	 4.664178 	 -3.145276 	 -5.004653 
H 	 -3.348843 	 6.356516 	 -6.538469 
H 	 -3.283463 	 5.791235 	 6.855444 
H 	 -5.032551 	 0.557003 	 -2.626515 
H 	 -3.621478 	 -0.125576 	 -2.617591 
H 	 3.994676 	 1.712044 	 1.706810 
H 	 3.026469 	 2.299465 	 2.761079 
H 	 -6.569400 	 0.746405 	 6.569679 
H 	 -6.905872 	 -0.032408 	 -7.036004 
H 	 -5.512794 	 -6.723407 	 3.406809 
H 	 -5.609637 	 -6.398888 	 4.879475 
H 	 5.622287 	 3.708249 	 4.826892 
H 	 6.983730 	 4.087192 	 5.347418 
H 	 3.700639 	 1.302232 	 -5.533642 
H 	 2.710736 	 0.022951 	 -5.715008 
H 	 -0.943825 	 -3.844367 	 5.777621 
H 	 -1.208278 	 -5.365707 	 5.718853 
H 	 1.705057 	 -0.229389 	 -2.263432 
H 	 1.996385 	 0.175443 	 -3.802281 
H 	 2.139647 	 -3.105984 	 -3.888905 
H 	 2.432279 	 -4.544292 	 -3.389711 
H 	 3.268992 	 0.607161 	 -0.828473 
H 	 2.245511 	 -0.174719 	 0.027977 
H 	 -1.973968 	 5.734572 	 -4.482806 
H 	 -3.232523 	 4.771718 	 -4.305820 
H 	 0.488174 	 -2.077879 	 -5.214800 
H 	 1.676091 	 -2.272020 	 -6.143201 
H 	 1.142250 	 4.880631 	 5.193725 
H 	 1.887695 	 5.150108 	 6.653649 
H 	 -5.605650 	 6.142850 	 2.506673 
H 	 -6.809009 	 7.162888 	 2.430731 
H 	 4.988282 	 -1.532195 	 -2.902150 
H 	 4.762936 	 -1.064636 	 -4.331926 
H 	 1.887706 	 5.547653 	 -6.029030 
H 	 2.343872 	 6.843014 	 -6.757106 
H 	 -0.849210 	 -4.207368 	 -6.571845 
H 	 -1.649422 	 -3.528506 	 -5.278687 
H 	 2.164364 	 -2.518302 	 6.571595 
H 	 1.144645 	 -1.772881 	 5.673921 
H 	 -1.206762 	 0.965678 	 -5.515336 
H 	 -1.634164 	 -0.401646 	 -5.014685 
H 	 -6.318292 	 -0.471689 	 1.689311 
H 	 -5.500260 	 0.801793 	 1.277943 
H 	 -4.417015 	 -1.976573 	 4.454393 
H 	 -3.946377 	 -1.731302 	 5.924620 
H 	 -4.913540 	 4.948211 	 4.606645 
H 	 -4.021113 	 4.786551 	 3.227435 
H 	 -5.374884 	 -5.122095 	 -7.383235 
H 	 -5.725683 	 -4.899050 	 6.095446 
H 	 -3.781784 	 3.318995 	 6.936912 
H 	 -3.596453 	 3.543727 	 5.447022 
H 	 -6.472833 	 -0.957385 	 -5.016779 
H 	 -5.261495 	 -1.060912 	 -4.079355 
H 	 -1.209825 	 3.374684 	 -3.527723 
H 	 -5.247553 	 2.495980 	 -0.493580 
H 	 6.525694 	 -5.022741 	 6.242699 
H 	 5.978066 	 -6.448595 	 6.427576 
H 	 2.410664 	 -5.055943 	 -6.910152 
H 	 1.281620 	 -4.892504 	 7.049115 
H 	 0.551390 	 1.905080 	 4.067288 
H 	 0.114868 	 1.924605 	 2.627793 
H 	 -3.409140 	 -6.333310 	 -2.088322 
H 	 -3.522442 	 -6.164119 	 -3.644703 
H 	 -4.427611 	 3.100536 	 0.655452 
O 	 4.918042 	 -6.535859 	 -3.505170 
O 	 1.837781 	 4.667187 	 1.308109 
O 	 6.667878 	 -7.373867 	 3.209810 
O 	 2.913555 	 -6.515903 	 -5.488487 
O 	 5.823548 	 6.645230 	 6.335271 
O 	 3.890037 	 5.988333 	 4.321381 
O 	 -6.683890 	 4.270230 	 -5.091460 
O 	 5.902902 	 -0.291769 	 4.275492 
O 	 -6.806164 	 5.664045 	 -0.359840 
O 	 7.133058 	 -2.690456 	 5.215078 
O 	 0.465956 	 -5.821887 	 -4.097683 
O 	 -6.343487 	 0.489587 	 4.932869 
O 	 -0.702940 	 -2.284644 	 5.006019 
O 	 3.962272 	 0.270438 	 6.378145 
O 	 -3.006207 	 -6.315766 	 0.027723 
O 	 3.840841 	 -6.209637 	 4.500225 
O 	 -0.194449 	 5.604808 	 3.686157 
O 	 6.434189 	 2.825608 	 0.408067 
O 	 -5.638011 	 1.922059 	 -2.230492 
O 	 -2.272309 	 1.080134 	 -1.020080 
O 	 -5.174115 	 -4.432562 	 -1.850241 
O 	 -1.186922 	 -1.620085 	 -0.965772 
O 	 4.245015 	 5.383644 	 -3.819751 
O 	 6.582667 	 -5.377767 	 -5.459233 
O 	 -1.197663 	 4.200511 	 -7.056459 
O 	 -2.277354 	 -5.768651 	 3.899428 
O 	 -4.971136 	 -3.175135 	 3.245406 
O 	 -2.384221 	 -4.190417 	 -2.695984 
O 	 4.902423 	 -2.795048 	 0.994639 
O 	 3.926812 	 2.488602 	 -1.332550 
O 	 0.945347 	 -6.898863 	 2.824659 
O 	 4.338743 	 2.936272 	 5.545927 
O 	 2.925126 	 7.143657 	 -1.361140 
O 	 5.204269 	 0.155967 	 1.473010 
O 	 5.412952 	 4.608137 	 -6.475814 
O 	 1.360930 	 5.154108 	 -4.273130 
O 	 6.351587 	 3.921630 	 -2.700430 
O 	 -1.926709 	 5.259933 	 -0.589321 
O 	 -2.261017 	 2.220829 	 4.870898 
O 	 1.703042 	 -0.621514 	 2.332892 
O 	 -3.226785 	 -3.567492 	 1.069056 
O 	 1.003414 	 1.594914 	 6.379993 
O 	 7.208588 	 -2.043107 	 -7.010839 
O 	 3.455830 	 -6.608750 	 1.569584 
O 	 -2.731331 	 0.001028 	 2.941575 
O 	 -0.922797 	 6.589468 	 -3.078590 
O 	 6.660489 	 -4.613928 	 1.950113 
O 	 -7.155748 	 -1.903531 	 2.237728 
O 	 -4.356733 	 3.221253 	 -3.988866 
O 	 7.392002 	 0.601094 	 -4.163549 
O 	 -6.544721 	 7.113775 	 -5.788067 
O 	 -0.471779 	 -2.549697 	 1.684812 
O 	 1.651149 	 2.674638 	 -2.665376 
O 	 -0.946732 	 -1.662191 	 -3.942673 
O 	 -2.409272 	 4.442192 	 2.066136 
O 	 1.463474 	 -4.762583 	 4.444004 
O 	 5.474062 	 6.008116 	 -0.247861 
O 	 -0.186526 	 -4.811689 	 -1.190447 
O 	 -0.229997 	 -7.168838 	 0.173871 
O 	 -1.320969 	 1.894413 	 1.509782 
O 	 -3.668706 	 -2.558294 	 -7.385989 
O 	 -1.155396 	 -0.253259 	 6.621494 
O 	 2.947115 	 -4.388136 	 -0.230637 
O 	 -4.822801 	 -1.915748 	 -0.507032 
O 	 -6.358336 	 -5.857646 	 0.213602 
O 	 -3.982110 	 1.904222 	 -6.926575 
O 	 -3.894837 	 -5.700990 	 -6.678499 
O 	 5.595814 	 1.543511 	 -6.843715 
O 	 5.717910 	 -5.321496 	 -1.213695 
O 	 -4.722933 	 5.440171 	 -2.168834 
O 	 -5.718003 	 -4.233970 	 -4.596689 
O 	 3.675923 	 -2.563470 	 3.355442 
O 	 -6.897878 	 2.498084 	 2.996852 
O 	 -0.434667 	 7.358091 	 5.899738 
O 	 -6.727964 	 4.330273 	 6.657666 
O 	 -6.242848 	 6.950640 	 5.762676 
O 	 -0.108504 	 2.242246 	 -5.270076 
O 	 0.978505 	 5.120544 	 -1.082586 
O 	 4.534008 	 -2.417817 	 -5.702353 
O 	 -3.262051 	 6.634642 	 7.391371 
O 	 -4.560968 	 -0.332942 	 -2.820936 
O 	 3.487235 	 2.541072 	 1.949785 
O 	 -6.573854 	 0.833178 	 -7.362790 
O 	 -5.501160 	 -5.924533 	 4.014284 
O 	 6.514853 	 4.039038 	 4.508752 
O 	 2.728581 	 0.986439 	 -5.519698 
O 	 -0.692126 	 -4.690851 	 6.174080 
O 	 1.307649 	 -0.032854 	 -3.135335 
O 	 2.688231 	 -3.602700 	 -3.200368 
O 	 2.796122 	 -0.245141 	 -0.736679 
O 	 -2.811521 	 5.429999 	 -4.902922 
O 	 1.436274 	 -1.825148 	 -5.299207 
O 	 1.836531 	 4.544855 	 5.797985 
O 	 -5.968679 	 6.897868 	 1.933859 
O 	 5.176319 	 -0.744057 	 -3.456599 
O 	 2.310470 	 5.884181 	 -6.886531 
O 	 -1.324152 	 -4.372256 	 -5.714011 
O 	 2.060979 	 -1.736471 	 6.027926 
O 	 -1.872111 	 0.229654 	 -5.717889 
O 	 -5.381699 	 -0.071574 	 1.616369 
O 	 -4.170788 	 -1.268734 	 5.104236 
O 	 -4.931808 	 4.830817 	 3.647736 
O 	 -6.090407 	 -4.830766 	 6.964016 
O 	 -3.880033 	 4.065878 	 6.231149 
O 	 -5.737772 	 -1.556145 	 -4.824376 
O 	 -1.883597 	 3.122762 	 -2.879190 
O 	 5.689629 	 -5.520599 	 6.378547 
O 	 2.039728 	 -4.395069 	 7.377395 
O 	 0.902875 	 1.959578 	 3.151832 
O 	 -3.354028 	 -6.797791 	 -2.916896 
O 	 -4.692288 	 2.252258 	 0.290072 
K 	 5.081975 	 4.976656 	 2.004634 
