333
conformation = 41
H 	 4.977812 	 -7.430828 	 -3.352415 
H 	 4.897538 	 -6.176258 	 -2.580253 
H 	 1.403270 	 4.472548 	 2.139200 
H 	 2.631591 	 4.009850 	 1.226619 
H 	 6.717624 	 -7.441113 	 4.088478 
H 	 6.526480 	 -6.347760 	 3.019006 
H 	 2.243367 	 -6.235000 	 -4.946764 
H 	 3.757763 	 -6.550577 	 -4.985084 
H 	 5.868968 	 6.140150 	 7.151114 
H 	 5.379975 	 6.183206 	 5.704911 
H 	 3.188190 	 5.618277 	 4.652601 
H 	 3.726180 	 7.014233 	 4.394527 
H 	 -5.865166 	 3.953265 	 -4.558700 
H 	 -6.446299 	 5.231021 	 -5.085840 
H 	 5.349343 	 -0.165139 	 5.050452 
H 	 6.917422 	 -0.023561 	 4.507720 
H 	 -6.077169 	 5.795945 	 -1.080638 
H 	 -6.474308 	 6.332182 	 0.330695 
H 	 6.853483 	 -1.839354 	 4.647054 
H 	 -6.791268 	 -2.785404 	 4.915919 
H 	 -0.046340 	 -6.570725 	 -3.800828 
H 	 -0.078273 	 -5.295833 	 -4.635062 
H 	 -5.430768 	 -0.006320 	 4.900742 
H 	 -6.308947 	 1.285171 	 4.230005 
H 	 -0.887167 	 -2.097682 	 4.094532 
H 	 -0.855653 	 -1.454308 	 5.515854 
H 	 3.436088 	 -0.320717 	 6.721476 
H 	 4.755974 	 0.692221 	 6.977512 
H 	 -2.013553 	 -6.501707 	 0.001410 
H 	 -2.953236 	 -5.343755 	 0.332582 
H 	 3.133987 	 -5.585042 	 4.699614 
H 	 4.663464 	 -5.658604 	 4.892379 
H 	 0.225424 	 6.465558 	 3.325654 
H 	 -0.946024 	 5.389607 	 3.185356 
H 	 7.299667 	 3.090514 	 0.935061 
H 	 6.475082 	 1.928248 	 0.459087 
H 	 -5.100529 	 2.492803 	 -2.992192 
H 	 -6.432250 	 1.755824 	 -2.497944 
H 	 -3.008013 	 1.438820 	 -0.680244 
H 	 -1.905969 	 1.680009 	 -1.737133 
H 	 -5.469393 	 -4.406805 	 -2.759449 
H 	 -5.343439 	 -3.517888 	 -1.448939 
H 	 -1.612953 	 -0.758946 	 -1.026115 
H 	 -1.684928 	 -2.258950 	 -1.172950 
H 	 4.714948 	 4.768155 	 -3.240235 
H 	 3.380756 	 5.362496 	 -3.794715 
H 	 6.135991 	 -5.437363 	 -6.223793 
H 	 6.126024 	 -5.730557 	 -4.692260 
H 	 -1.633897 	 4.068409 	 6.997633 
H 	 -1.731689 	 4.607710 	 -6.547465 
H 	 -2.287778 	 -6.653803 	 4.335314 
H 	 -3.098839 	 -5.618155 	 3.474502 
H 	 -4.143983 	 -3.177255 	 2.526296 
H 	 -4.969450 	 -4.103366 	 3.401583 
H 	 -1.760474 	 -4.406850 	 -1.903657 
H 	 -3.268137 	 -4.086823 	 -2.354691 
H 	 4.174247 	 -2.887744 	 0.400739 
H 	 4.567930 	 -2.846167 	 1.864756 
H 	 4.838230 	 2.406266 	 -1.907249 
H 	 4.196989 	 3.176967 	 -0.701355 
H 	 1.078957 	 -6.103895 	 3.386310 
H 	 1.985125 	 -6.727370 	 2.399445 
H 	 4.123292 	 2.081159 	 5.790782 
H 	 3.644593 	 3.575593 	 5.829402 
H 	 3.031080 	 7.154107 	 -0.387416 
H 	 2.341722 	 6.383516 	 -1.514438 
H 	 4.765033 	 -0.500887 	 0.967552 
H 	 5.524189 	 -0.120788 	 2.385989 
H 	 6.407752 	 4.386985 	 -6.075142 
H 	 5.071606 	 4.923566 	 -5.637851 
H 	 1.389605 	 4.328605 	 -3.793988 
H 	 0.615871 	 5.710306 	 -4.030696 
H 	 7.007341 	 3.653334 	 -1.965136 
H 	 7.058724 	 4.246886 	 -3.428652 
H 	 -2.709618 	 5.515362 	 -0.944975 
H 	 -1.635495 	 4.530696 	 -1.145992 
H 	 -2.012825 	 1.497456 	 5.528887 
H 	 -2.413643 	 1.730537 	 4.100804 
H 	 1.529333 	 0.197926 	 2.820931 
H 	 0.899531 	 -1.064954 	 2.171079 
H 	 -3.335055 	 -2.815027 	 0.546682 
H 	 -2.154610 	 -3.385761 	 1.443615 
H 	 1.320259 	 2.518125 	 6.361856 
H 	 1.979484 	 1.155024 	 6.633840 
H 	 7.327950 	 -2.300424 	 6.876905 
H 	 -7.217591 	 -2.807493 	 -6.534444 
H 	 4.004694 	 -6.308285 	 2.433363 
H 	 3.501824 	 -5.730053 	 1.032815 
H 	 -2.969417 	 -0.277246 	 3.804837 
H 	 -3.582934 	 0.035159 	 2.482954 
H 	 -0.589450 	 6.229275 	 -2.230735 
H 	 -1.649982 	 7.170035 	 -2.991310 
H 	 6.108041 	 -4.049920 	 1.390197 
H 	 7.505359 	 -4.907551 	 1.400159 
H 	 -6.397629 	 -2.598957 	 2.294536 
H 	 7.082595 	 -2.262947 	 1.892813 
H 	 -2.682053 	 3.117234 	 -3.381792 
H 	 -4.234574 	 2.891035 	 -4.885502 
H 	 6.596872 	 0.174321 	 -3.981357 
H 	 7.375157 	 1.302011 	 -4.868266 
H 	 -5.695932 	 -7.130596 	 -5.894061 
H 	 -7.232946 	 -7.080906 	 -5.954457 
H 	 0.091647 	 -3.356264 	 1.699511 
H 	 -0.460880 	 -2.110976 	 0.739456 
H 	 1.294135 	 1.814652 	 -2.898731 
H 	 2.420575 	 2.512463 	 -2.069551 
H 	 -0.101408 	 -1.138730 	 -3.397108 
H 	 -1.273635 	 -2.301911 	 -3.355836 
H 	 -1.885258 	 3.573424 	 1.896464 
H 	 -2.124805 	 5.029597 	 1.286288 
H 	 1.862437 	 -3.827512 	 4.268455 
H 	 0.746195 	 -4.686161 	 5.024552 
H 	 5.024379 	 6.664521 	 -0.851576 
H 	 6.415519 	 5.891028 	 -0.619520 
H 	 0.005870 	 -5.708902 	 -0.872108 
H 	 0.399861 	 -4.723286 	 -2.021225 
H 	 -0.403358 	 6.838824 	 -0.029172 
H 	 0.131313 	 -7.066658 	 1.138261 
H 	 -1.452563 	 1.616576 	 0.617876 
H 	 -1.680596 	 1.310534 	 2.127627 
H 	 -3.848853 	 -1.997562 	 -6.532236 
H 	 -4.024232 	 -3.349876 	 -7.449897 
H 	 -0.366816 	 0.441145 	 6.615225 
H 	 -1.356562 	 -0.182624 	 -7.299805 
H 	 3.092739 	 -4.329644 	 -1.167913 
H 	 2.043480 	 -4.415803 	 0.026840 
H 	 -5.284784 	 -1.297513 	 0.163900 
H 	 -4.842487 	 -1.314399 	 -1.339378 
H 	 -5.706367 	 -5.861354 	 -0.529424 
H 	 -5.751024 	 -6.385652 	 0.898843 
H 	 -4.765670 	 1.525172 	 -6.897473 
H 	 -3.286623 	 1.130150 	 -6.792500 
H 	 -3.104156 	 -5.236803 	 -6.159083 
H 	 -3.519474 	 -6.595522 	 -6.949906 
H 	 6.643113 	 1.450278 	 -6.938447 
H 	 5.513114 	 2.625383 	 -6.951628 
H 	 5.494540 	 -4.714726 	 -0.445081 
H 	 6.574094 	 -5.768834 	 -0.799947 
H 	 -4.511180 	 4.692332 	 -2.801448 
H 	 -4.435042 	 6.307833 	 -2.729254 
H 	 -6.432327 	 -4.643243 	 -4.873975 
H 	 -5.671966 	 -3.224050 	 -4.796714 
H 	 3.187925 	 -1.738546 	 3.278936 
H 	 4.496971 	 -2.138377 	 3.866295 
H 	 -5.887559 	 3.001484 	 3.080311 
H 	 7.520443 	 3.111912 	 3.554065 
H 	 -0.370759 	 6.567115 	 5.386183 
H 	 -0.808544 	 7.173773 	 6.785297 
H 	 -5.649731 	 4.314283 	 6.599563 
H 	 -6.802692 	 4.506877 	 -7.273142 
H 	 -5.689315 	 6.776298 	 6.593778 
H 	 -7.029466 	 6.679588 	 6.068054 
H 	 0.901857 	 2.082307 	 -5.467511 
H 	 -0.326915 	 2.772534 	 -6.113203 
H 	 0.810686 	 4.454773 	 -1.640306 
H 	 1.326999 	 4.839750 	 -0.215048 
H 	 5.384133 	 -2.464934 	 -6.280470 
H 	 4.622679 	 -3.116971 	 -5.014297 
H 	 -3.229063 	 6.195979 	 -6.679460 
H 	 -3.358348 	 5.969634 	 6.765918 
H 	 -4.930180 	 0.571920 	 -2.580826 
H 	 -3.520004 	 -0.026859 	 -2.558337 
H 	 4.142496 	 1.740823 	 1.636775 
H 	 2.983440 	 2.317440 	 2.629988 
H 	 -6.395545 	 0.826999 	 6.514767 
H 	 -6.779481 	 -0.053906 	 -7.225061 
H 	 -5.322821 	 -6.546199 	 3.228953 
H 	 -5.832128 	 -6.510702 	 4.706083 
H 	 5.770077 	 3.905916 	 4.977859 
H 	 7.260506 	 4.357716 	 5.262179 
H 	 3.752564 	 1.304046 	 -5.778756 
H 	 2.815578 	 0.097790 	 -5.732931 
H 	 -0.778496 	 -3.715545 	 5.849543 
H 	 -1.121661 	 -5.311198 	 5.782792 
H 	 1.910096 	 -0.272035 	 -2.273974 
H 	 2.266872 	 0.201480 	 -3.563488 
H 	 2.339771 	 -2.857944 	 -3.853342 
H 	 2.583515 	 -4.403292 	 -3.589972 
H 	 3.200118 	 0.706381 	 -0.739833 
H 	 2.228347 	 -0.137550 	 -0.009092 
H 	 -1.937549 	 5.835192 	 -4.401438 
H 	 -3.046064 	 4.655347 	 -4.414589 
H 	 0.503171 	 -1.760757 	 -5.125124 
H 	 1.733809 	 -2.354277 	 -5.965647 
H 	 1.283333 	 4.953760 	 5.222233 
H 	 1.991777 	 5.212940 	 6.633607 
H 	 -5.510433 	 6.251976 	 2.598645 
H 	 -6.661678 	 7.396502 	 2.310275 
H 	 4.991248 	 -1.427858 	 -2.860328 
H 	 4.972084 	 -1.028627 	 -4.300408 
H 	 1.949424 	 5.532833 	 -6.113240 
H 	 2.413117 	 6.867124 	 -6.540713 
H 	 -1.000792 	 -4.259420 	 -6.674505 
H 	 -1.470200 	 -3.412477 	 -5.436474 
H 	 2.212982 	 -2.485363 	 6.584933 
H 	 1.258676 	 -1.694876 	 5.647389 
H 	 -1.160312 	 1.002564 	 -5.603662 
H 	 -1.514174 	 -0.430241 	 -5.042038 
H 	 -6.188317 	 -0.536782 	 1.761026 
H 	 -5.396365 	 0.821021 	 1.238021 
H 	 -4.322768 	 -1.928194 	 4.497316 
H 	 -3.930694 	 -1.655491 	 6.006255 
H 	 -4.703140 	 5.154065 	 4.582097 
H 	 -3.958842 	 4.809057 	 3.365147 
H 	 -5.190398 	 -5.164106 	 -7.368756 
H 	 -5.662358 	 -4.756989 	 6.129509 
H 	 -3.877051 	 3.356588 	 6.949891 
H 	 -3.508069 	 3.544092 	 5.464427 
H 	 -6.388398 	 -1.000987 	 -4.872942 
H 	 -5.163199 	 -1.216430 	 -4.060416 
H 	 -1.129749 	 3.443784 	 -3.636829 
H 	 -5.125064 	 2.395626 	 -0.523166 
H 	 6.576096 	 -4.888064 	 6.295069 
H 	 6.097975 	 -6.426354 	 6.392748 
H 	 2.461193 	 -5.143455 	 -6.936605 
H 	 1.266877 	 -4.625873 	 6.980189 
H 	 0.502965 	 2.010405 	 3.974203 
H 	 0.325152 	 1.995541 	 2.418017 
H 	 -3.392439 	 -6.263453 	 -2.134186 
H 	 -3.396407 	 -5.971729 	 -3.535011 
H 	 -4.461536 	 3.196283 	 0.717703 
O 	 5.009247 	 -6.468918 	 -3.529458 
O 	 1.949077 	 4.726446 	 1.350962 
O 	 6.781631 	 -7.319157 	 3.124459 
O 	 2.962309 	 -6.485671 	 -5.540447 
O 	 5.883620 	 6.719488 	 6.348066 
O 	 3.970320 	 6.039493 	 4.319550 
O 	 -6.631194 	 4.261994 	 -5.075951 
O 	 5.986046 	 -0.273519 	 4.285213 
O 	 -6.734857 	 5.702005 	 -0.368352 
O 	 7.203792 	 -2.607558 	 5.170821 
O 	 0.537506 	 -5.835364 	 -4.086030 
O 	 -6.253192 	 0.525139 	 4.906520 
O 	 -0.584464 	 -2.235926 	 4.988032 
O 	 4.051839 	 0.372072 	 6.337341 
O 	 -2.960430 	 -6.237650 	 -0.036572 
O 	 3.908508 	 -6.136326 	 4.497741 
O 	 -0.097456 	 5.617890 	 3.711707 
O 	 6.538141 	 2.889709 	 0.387195 
O 	 -5.557574 	 1.943382 	 -2.184649 
O 	 -2.128075 	 1.122643 	 -1.007110 
O 	 -5.115667 	 -4.422981 	 -1.805081 
O 	 -1.108040 	 -1.578961 	 -0.908985 
O 	 4.352649 	 5.432284 	 -3.806732 
O 	 6.682182 	 -5.364069 	 -5.425005 
O 	 -1.068028 	 4.232985 	 -7.112505 
O 	 -2.225071 	 -5.748818 	 3.888889 
O 	 -4.881109 	 -3.116699 	 3.231308 
O 	 -2.328728 	 -4.163533 	 -2.699777 
O 	 4.961736 	 -2.789458 	 0.988402 
O 	 4.005402 	 2.552085 	 -1.403804 
O 	 1.060413 	 -6.860530 	 2.813218 
O 	 4.411685 	 2.973584 	 5.549361 
O 	 2.940664 	 7.150254 	 -1.366583 
O 	 5.258312 	 0.185179 	 1.446817 
O 	 5.545654 	 4.673017 	 -6.495852 
O 	 1.451343 	 5.213448 	 -4.277625 
O 	 6.444304 	 3.973882 	 -2.703044 
O 	 -1.797428 	 5.348425 	 -0.643737 
O 	 -2.212174 	 2.287104 	 4.879107 
O 	 1.763060 	 -0.630752 	 2.320238 
O 	 -3.084683 	 -3.560860 	 1.097867 
O 	 1.106676 	 1.585153 	 6.381716 
O 	 7.291313 	 -2.058506 	 -7.009709 
O 	 3.558977 	 -6.521705 	 1.596767 
O 	 -2.702864 	 0.065285 	 2.907360 
O 	 -0.833981 	 6.635617 	 -3.114166 
O 	 6.735750 	 -4.566610 	 1.991297 
O 	 -7.045224 	 -1.833791 	 2.248176 
O 	 -4.286495 	 3.262958 	 -3.989680 
O 	 7.496061 	 0.645475 	 -4.160312 
O 	 -6.474275 	 7.188990 	 -5.812091 
O 	 -0.377279 	 -2.516545 	 1.644008 
O 	 1.687867 	 2.703884 	 -2.678591 
O 	 -0.835919 	 -1.620857 	 -3.939808 
O 	 -2.295361 	 4.457182 	 2.087088 
O 	 1.588068 	 -4.747094 	 4.423712 
O 	 5.532735 	 6.091411 	 -0.235249 
O 	 -0.143650 	 -4.765395 	 -1.187703 
O 	 -0.153743 	 -7.119116 	 0.162109 
O 	 -1.202892 	 1.957150 	 1.515682 
O 	 -3.562088 	 -2.491188 	 -7.346875 
O 	 -1.081548 	 -0.201118 	 6.606833 
O 	 3.006933 	 -4.385338 	 -0.208909 
O 	 -4.729237 	 -1.829287 	 -0.498262 
O 	 -6.267289 	 -5.849728 	 0.271144 
O 	 -3.869614 	 1.932920 	 -6.927517 
O 	 -3.792588 	 -5.685989 	 -6.692419 
O 	 5.668357 	 1.665884 	 -6.814376 
O 	 5.820116 	 -5.289557 	 -1.187267 
O 	 -4.590237 	 5.477868 	 -2.191026 
O 	 -5.617435 	 -4.206113 	 -4.621894 
O 	 3.727533 	 -2.528844 	 3.338075 
O 	 -6.763891 	 2.529626 	 3.001728 
O 	 -0.387821 	 -7.477819 	 5.903366 
O 	 -6.650013 	 4.386981 	 6.669140 
O 	 -6.153778 	 6.977862 	 5.756595 
O 	 -0.014177 	 2.265206 	 -5.309368 
O 	 1.059302 	 5.180880 	 -1.072934 
O 	 4.569910 	 -2.370494 	 -5.690456 
O 	 -3.200798 	 6.701154 	 7.384165 
O 	 -4.426298 	 -0.277776 	 -2.821521 
O 	 3.596751 	 2.527993 	 1.883806 
O 	 -6.529187 	 0.867292 	 -7.391836 
O 	 -5.404500 	 -5.905182 	 4.024035 
O 	 6.611982 	 4.079481 	 4.498762 
O 	 2.843077 	 1.051837 	 -5.503662 
O 	 -0.579807 	 -4.607116 	 6.215346 
O 	 1.413127 	 0.013105 	 -3.092556 
O 	 2.727665 	 -3.512417 	 -3.217993 
O 	 2.854006 	 -0.222798 	 -0.750881 
O 	 -2.716704 	 5.447784 	 -4.920542 
O 	 1.492683 	 -1.714320 	 -5.284390 
O 	 1.956591 	 4.591523 	 5.825551 
O 	 -5.817710 	 6.900831 	 1.896964 
O 	 5.260741 	 -0.718640 	 -3.440743 
O 	 2.372360 	 5.944559 	 -6.901616 
O 	 -1.281224 	 -4.325376 	 -5.750701 
O 	 2.163307 	 -1.681557 	 6.046682 
O 	 -1.774436 	 0.232319 	 -5.717972 
O 	 -5.319657 	 -0.043492 	 1.607325 
O 	 -4.041404 	 -1.234289 	 5.106441 
O 	 -4.866145 	 4.874554 	 3.663621 
O 	 -6.009189 	 -4.801619 	 7.024925 
O 	 -3.799980 	 4.068075 	 6.253677 
O 	 -5.613066 	 -1.541719 	 -4.858829 
O 	 -1.768762 	 3.182448 	 -2.948191 
O 	 5.798573 	 -5.494977 	 6.374411 
O 	 2.131358 	 -4.396896 	 7.418513 
O 	 0.977444 	 2.006249 	 3.154460 
O 	 -3.239828 	 -6.754065 	 -2.939015 
O 	 -4.649627 	 2.316609 	 0.330626 
K 	 5.157117 	 5.008660 	 2.005023 
