333
conformation = 53
H 	 4.900113 	 -7.490713 	 -3.459038 
H 	 5.039583 	 -6.214654 	 -2.558127 
H 	 1.400341 	 4.451002 	 2.179094 
H 	 2.551202 	 3.863183 	 1.341087 
H 	 6.609511 	 7.340798 	 4.044777 
H 	 6.627481 	 -6.376141 	 2.929938 
H 	 2.102130 	 -6.348779 	 -5.030242 
H 	 3.604445 	 -6.700684 	 -4.844782 
H 	 5.758186 	 6.107400 	 7.214411 
H 	 5.270141 	 6.264830 	 5.720376 
H 	 3.223028 	 5.510461 	 4.750023 
H 	 3.840154 	 6.993830 	 4.391673 
H 	 -5.765969 	 3.896983 	 -4.617332 
H 	 -6.624926 	 5.172796 	 -5.098947 
H 	 5.448065 	 0.035213 	 5.082703 
H 	 6.914964 	 -0.128042 	 4.625268 
H 	 -6.050725 	 5.574472 	 -0.981189 
H 	 -6.351666 	 6.019416 	 0.536831 
H 	 6.870643 	 -1.848419 	 4.698963 
H 	 -6.847007 	 -2.740835 	 4.800072 
H 	 0.051258 	 -6.774126 	 -3.763204 
H 	 -0.030533 	 -5.395618 	 -4.667452 
H 	 -5.439160 	 -0.033070 	 4.753680 
H 	 -6.246623 	 1.231626 	 4.264901 
H 	 -0.883269 	 -2.185780 	 4.097059 
H 	 -0.991318 	 -1.522243 	 5.539844 
H 	 3.546616 	 -0.426370 	 6.629477 
H 	 4.667779 	 0.592103 	 7.113353 
H 	 -2.046004 	 -6.500819 	 0.098282 
H 	 -3.028501 	 -5.303654 	 0.165481 
H 	 3.080940 	 -5.707788 	 4.933964 
H 	 4.643972 	 -5.750495 	 5.054945 
H 	 0.352999 	 6.329270 	 3.305499 
H 	 -0.955435 	 5.422919 	 3.254482 
H 	 7.354975 	 3.078514 	 0.916018 
H 	 6.542245 	 1.909512 	 0.600998 
H 	 -5.069428 	 2.498827 	 -2.779251 
H 	 -6.484725 	 1.850372 	 -2.494223 
H 	 -2.922768 	 1.493822 	 -0.606044 
H 	 -1.762787 	 1.689607 	 -1.651787 
H 	 -5.493306 	 -4.430535 	 -2.662640 
H 	 -5.558795 	 -3.739980 	 -1.259873 
H 	 -1.466692 	 -0.728807 	 -0.885615 
H 	 -1.765627 	 -2.235396 	 -1.155814 
H 	 4.720032 	 4.621870 	 -3.208969 
H 	 3.414507 	 5.316145 	 -3.678275 
H 	 6.153261 	 -5.175754 	 -6.110574 
H 	 6.062735 	 -5.771496 	 -4.603781 
H 	 -1.654167 	 3.793276 	 7.095004 
H 	 -1.601403 	 4.574713 	 -6.418728 
H 	 -2.288519 	 -6.660776 	 4.458245 
H 	 -3.185757 	 -5.625199 	 3.663029 
H 	 -4.134420 	 -3.213198 	 2.614253 
H 	 -5.105646 	 -4.026809 	 3.610788 
H 	 -1.670432 	 -4.540243 	 -2.062961 
H 	 -3.252231 	 -4.253823 	 -2.201809 
H 	 4.116851 	 -3.075967 	 0.487235 
H 	 4.546917 	 -2.876523 	 1.961388 
H 	 4.883088 	 2.387445 	 -1.862727 
H 	 4.320563 	 3.078730 	 -0.695934 
H 	 1.037335 	 -6.119057 	 3.431254 
H 	 2.012064 	 -6.858841 	 2.447306 
H 	 4.066212 	 2.085480 	 5.941986 
H 	 3.695572 	 3.566327 	 5.849066 
H 	 3.055662 	 7.106494 	 -0.353474 
H 	 2.214951 	 6.363155 	 -1.431515 
H 	 4.771913 	 -0.625836 	 1.051854 
H 	 5.486224 	 -0.216092 	 2.378195 
H 	 6.487224 	 4.362235 	 -6.082619 
H 	 5.119151 	 5.042732 	 -5.717701 
H 	 1.544618 	 4.301034 	 -3.658884 
H 	 0.710828 	 5.741584 	 -3.854562 
H 	 6.986132 	 3.677809 	 -1.923250 
H 	 6.982459 	 4.005078 	 -3.464996 
H 	 -2.713768 	 5.604411 	 -0.824434 
H 	 -1.697641 	 4.523657 	 -1.200430 
H 	 -1.744144 	 1.514033 	 5.430551 
H 	 -2.435471 	 1.895597 	 4.073004 
H 	 1.380655 	 -0.078501 	 3.002370 
H 	 1.051231 	 -1.395166 	 2.232759 
H 	 -3.313428 	 -2.952653 	 0.517284 
H 	 -2.190900 	 -3.221086 	 1.519874 
H 	 1.303057 	 2.464407 	 6.299188 
H 	 2.057791 	 1.094782 	 6.575255 
H 	 7.224008 	 -2.654333 	 7.068704 
H 	 -7.078070 	 -2.815724 	 -6.450848 
H 	 3.975488 	 -6.407789 	 2.557853 
H 	 3.689498 	 -5.692403 	 1.194838 
H 	 -3.041651 	 -0.368455 	 3.755259 
H 	 -3.583101 	 -0.012356 	 2.325264 
H 	 -0.586609 	 5.997036 	 -2.319468 
H 	 -1.652685 	 7.138526 	 -2.841190 
H 	 6.285001 	 -4.266729 	 1.284573 
H 	 7.562338 	 -4.939530 	 1.661497 
H 	 -6.501139 	 -2.634123 	 2.499087 
H 	 7.077208 	 -2.185232 	 1.852299 
H 	 -2.712829 	 3.072938 	 -3.305967 
H 	 -4.229609 	 2.753872 	 -4.796870 
H 	 6.608409 	 0.487079 	 -3.775339 
H 	 7.459517 	 1.294305 	 -4.806078 
H 	 -5.671330 	 -7.198107 	 -5.797058 
H 	 -7.163794 	 -7.014980 	 -5.892789 
H 	 0.240393 	 -3.254609 	 1.786715 
H 	 -0.281517 	 -2.319394 	 0.703974 
H 	 1.431384 	 1.643067 	 -2.803702 
H 	 2.468071 	 2.632266 	 -2.223673 
H 	 -0.107787 	 -1.222405 	 -3.374458 
H 	 -1.153192 	 -2.420804 	 -3.396375 
H 	 -1.748549 	 3.598598 	 2.015972 
H 	 -2.214564 	 4.811863 	 1.332152 
H 	 1.765600 	 -3.874712 	 4.117508 
H 	 0.888078 	 -4.778461 	 5.104246 
H 	 4.873413 	 6.566304 	 -0.841679 
H 	 6.417716 	 5.998011 	 -0.533531 
H 	 0.012262 	 -5.637936 	 -0.644627 
H 	 0.313366 	 -4.915284 	 -1.978484 
H 	 -0.050356 	 6.779316 	 -0.045596 
H 	 0.158198 	 -7.073369 	 1.132797 
H 	 -1.384046 	 1.543203 	 0.652452 
H 	 -1.638307 	 1.325604 	 2.174160 
H 	 -4.031697 	 -2.068303 	 -6.503203 
H 	 -4.223362 	 -3.226091 	 -7.321745 
H 	 -0.266721 	 0.346742 	 6.670596 
H 	 -1.313097 	 -0.279201 	 -7.290251 
H 	 2.956187 	 -4.135370 	 -1.068613 
H 	 2.009400 	 -4.334966 	 0.049226 
H 	 -5.164759 	 -1.312590 	 0.321469 
H 	 -4.851255 	 -1.319618 	 -1.293952 
H 	 -5.719575 	 -5.728749 	 -0.433361 
H 	 -5.771427 	 -6.579511 	 0.857997 
H 	 -4.774532 	 1.561071 	 -6.845297 
H 	 -3.315566 	 1.111616 	 -6.540715 
H 	 -3.165215 	 -5.255279 	 -6.085653 
H 	 -3.441716 	 -6.673072 	 -6.901392 
H 	 6.573130 	 1.450213 	 -7.060659 
H 	 5.505051 	 2.628340 	 -6.924652 
H 	 5.462549 	 -4.795304 	 -0.402695 
H 	 6.666453 	 -5.679692 	 -0.736154 
H 	 -4.267860 	 4.754009 	 -2.794856 
H 	 -4.361727 	 6.217755 	 -2.729593 
H 	 -6.475709 	 -4.576862 	 -4.859147 
H 	 -5.694239 	 -3.257054 	 -4.567331 
H 	 3.148012 	 -1.782904 	 3.162799 
H 	 4.377774 	 -2.287713 	 4.020469 
H 	 -5.843126 	 2.930647 	 3.157350 
H 	 7.596001 	 3.010695 	 3.703938 
H 	 -0.447900 	 6.645108 	 5.356333 
H 	 -0.949318 	 7.138951 	 6.768722 
H 	 -5.711506 	 4.253189 	 6.474253 
H 	 -6.673613 	 4.401341 	 -7.202203 
H 	 -5.632153 	 6.975469 	 6.634838 
H 	 -7.104417 	 6.865879 	 6.061175 
H 	 0.939231 	 2.009467 	 -5.464859 
H 	 -0.295743 	 2.776025 	 -6.054689 
H 	 1.063589 	 4.358186 	 -1.575175 
H 	 1.170049 	 4.843239 	 -0.120071 
H 	 5.452449 	 -2.543470 	 -5.980905 
H 	 4.473099 	 -3.198687 	 -5.080523 
H 	 -3.137801 	 6.089817 	 -6.715920 
H 	 -3.495423 	 6.124266 	 6.694572 
H 	 -4.922953 	 0.470687 	 -2.518023 
H 	 -3.453458 	 -0.102139 	 -2.540001 
H 	 4.162069 	 1.626133 	 1.784020 
H 	 2.891518 	 2.111790 	 2.474247 
H 	 -6.374782 	 0.962543 	 6.534073 
H 	 -6.635765 	 -0.160006 	 -7.250748 
H 	 -5.240540 	 -6.323086 	 3.173660 
H 	 -5.998293 	 -6.602875 	 4.550913 
H 	 5.869141 	 3.722230 	 5.095458 
H 	 7.352220 	 4.470901 	 5.122050 
H 	 3.670001 	 1.245501 	 -5.882174 
H 	 2.689153 	 0.092278 	 -5.667653 
H 	 -0.846294 	 -3.755743 	 5.816928 
H 	 -1.158203 	 -5.255415 	 5.856586 
H 	 1.738151 	 -0.363694 	 -2.096648 
H 	 2.173399 	 0.122475 	 -3.634516 
H 	 2.390159 	 -2.778047 	 -3.743067 
H 	 2.568024 	 -4.245088 	 -3.796076 
H 	 3.166531 	 0.651173 	 -0.735297 
H 	 2.175816 	 -0.385664 	 0.059719 
H 	 -2.072250 	 5.726148 	 -4.211494 
H 	 -3.090776 	 4.531572 	 -4.540947 
H 	 0.512325 	 -1.660032 	 -5.025315 
H 	 1.592122 	 -2.508085 	 -5.741431 
H 	 1.246535 	 4.854182 	 5.329553 
H 	 2.006181 	 5.192331 	 6.624791 
H 	 -5.530604 	 6.225627 	 2.643854 
H 	 -6.650183 	 7.120604 	 2.290491 
H 	 4.967661 	 -1.394783 	 -2.709706 
H 	 5.058570 	 -1.188927 	 -4.220475 
H 	 1.969469 	 5.331350 	 -6.208835 
H 	 2.578935 	 6.819728 	 -6.457219 
H 	 -1.283432 	 -4.376820 	 -6.709674 
H 	 -1.352887 	 -3.428006 	 -5.594864 
H 	 2.206005 	 -2.589538 	 6.585620 
H 	 1.292199 	 -1.730435 	 5.685449 
H 	 -1.134559 	 0.872924 	 -5.486694 
H 	 -1.545988 	 -0.536050 	 -5.003290 
H 	 -6.144469 	 -0.512056 	 1.988485 
H 	 -5.513772 	 0.795940 	 1.265585 
H 	 -4.314137 	 -2.051841 	 4.634889 
H 	 -3.927850 	 -1.630958 	 6.102724 
H 	 -4.828588 	 5.293458 	 4.597085 
H 	 -4.006373 	 4.683448 	 3.367339 
H 	 -5.206676 	 -5.270008 	 -7.267047 
H 	 -5.753063 	 -4.738328 	 6.191624 
H 	 -3.936071 	 3.291422 	 6.989684 
H 	 -3.421305 	 3.425518 	 5.613958 
H 	 -6.384710 	 -1.092240 	 -4.722861 
H 	 -5.060249 	 -1.379151 	 -4.067301 
H 	 -1.140432 	 3.183463 	 -3.737974 
H 	 -5.088022 	 2.308885 	 -0.492204 
H 	 6.615813 	 -4.961404 	 6.391644 
H 	 6.109404 	 -6.490753 	 6.425294 
H 	 2.386403 	 -5.326995 	 -6.959933 
H 	 1.216829 	 -4.638140 	 7.104156 
H 	 0.346810 	 2.056868 	 3.921860 
H 	 0.395492 	 2.041054 	 2.349575 
H 	 -3.333428 	 -6.528556 	 -1.932055 
H 	 -3.244038 	 -6.025788 	 -3.526611 
H 	 -4.662126 	 3.247482 	 0.707726 
O 	 5.004590 	 -6.510895 	 -3.490044 
O 	 1.976142 	 4.700462 	 1.446383 
O 	 6.791324 	 -7.338183 	 3.095647 
O 	 2.913445 	 -6.535822 	 -5.550904 
O 	 5.867692 	 6.688449 	 6.413267 
O 	 3.954391 	 6.008549 	 4.366244 
O 	 -6.672023 	 4.185927 	 -5.004617 
O 	 5.969990 	 -0.353564 	 4.332839 
O 	 -6.757077 	 5.651594 	 -0.336838 
O 	 7.184463 	 -2.625190 	 5.195194 
O 	 0.514093 	 -5.926809 	 -4.026209 
O 	 -6.265184 	 0.478443 	 4.934790 
O 	 -0.550888 	 -2.267292 	 5.018164 
O 	 4.060070 	 0.388700 	 6.341109 
O 	 -3.005987 	 -6.245229 	 -0.055946 
O 	 3.887305 	 -6.143256 	 4.529963 
O 	 -0.091507 	 5.546035 	 3.781659 
O 	 6.557361 	 2.864994 	 0.408747 
O 	 -5.577303 	 1.893267 	 -2.100902 
O 	 -2.083888 	 1.073886 	 -0.941940 
O 	 -5.148494 	 -4.492181 	 -1.728066 
O 	 -1.117286 	 -1.623198 	 -0.800592 
O 	 4.375733 	 5.400991 	 -3.757281 
O 	 6.684514 	 -5.440843 	 -5.349682 
O 	 -1.039861 	 4.176568 	 -7.126718 
O 	 -2.259532 	 -5.816608 	 3.924484 
O 	 -4.864781 	 -3.170395 	 3.258084 
O 	 -2.367379 	 -4.190809 	 -2.648265 
O 	 4.931974 	 -2.863254 	 1.021115 
O 	 3.997514 	 2.518400 	 -1.414352 
O 	 1.090907 	 -6.909636 	 2.836168 
O 	 4.380236 	 2.939164 	 5.606799 
O 	 2.876366 	 7.077241 	 -1.318352 
O 	 5.221294 	 0.153038 	 1.464037 
O 	 5.596570 	 4.650565 	 -6.442311 
O 	 1.445774 	 5.175499 	 -4.227658 
O 	 6.447520 	 3.931693 	 -2.658009 
O 	 -1.780701 	 5.343636 	 -0.653609 
O 	 -2.247153 	 2.232871 	 4.936949 
O 	 1.727931 	 -0.719454 	 2.358458 
O 	 -3.029283 	 -3.641521 	 1.187172 
O 	 1.121915 	 1.496104 	 6.429845 
O 	 7.273520 	 -2.156535 	 -6.966220 
O 	 3.566745 	 -6.531563 	 1.676110 
O 	 -2.783380 	 0.043206 	 2.932363 
O 	 -0.836749 	 6.603944 	 -3.102429 
O 	 6.727347 	 -4.612701 	 2.083450 
O 	 -7.038249 	 -1.857632 	 2.301102 
O 	 -4.308704 	 3.223274 	 -3.935932 
O 	 7.512772 	 0.601905 	 -4.102473 
O 	 -6.490816 	 7.173623 	 -5.794749 
O 	 -0.380655 	 -2.563403 	 1.673486 
O 	 1.607862 	 2.661827 	 -2.647765 
O 	 -0.821762 	 -1.666846 	 -3.881705 
O 	 -2.277053 	 4.395660 	 2.167804 
O 	 1.609993 	 -4.801662 	 4.450654 
O 	 5.493253 	 6.090003 	 -0.182268 
O 	 -0.171974 	 -4.805521 	 -1.132372 
O 	 -0.179199 	 -7.163336 	 0.210409 
O 	 -1.181994 	 1.925765 	 1.576578 
O 	 -3.535569 	 -2.503974 	 -7.266678 
O 	 -1.099298 	 -0.215959 	 6.646302 
O 	 2.972053 	 -4.465434 	 -0.136530 
O 	 -4.736763 	 -1.835705 	 -0.446584 
O 	 -6.267292 	 -5.934944 	 0.381379 
O 	 -3.860883 	 1.864473 	 -6.868746 
O 	 -3.785677 	 -5.756386 	 -6.649575 
O 	 5.651709 	 1.694726 	 -6.723190 
O 	 5.835161 	 -5.340845 	 -1.106315 
O 	 -4.541231 	 5.432364 	 -2.160307 
O 	 -5.599241 	 -4.276538 	 -4.587431 
O 	 3.695636 	 -2.568760 	 3.384766 
O 	 -6.710801 	 2.474977 	 3.057325 
O 	 -0.438904 	 -7.501089 	 5.960937 
O 	 -6.658751 	 4.354828 	 6.742997 
O 	 -6.160683 	 6.912512 	 5.814345 
O 	 -0.017595 	 2.208659 	 -5.306151 
O 	 1.035108 	 5.158612 	 -1.035376 
O 	 4.518967 	 -2.405609 	 -5.633094 
O 	 -3.234493 	 6.661220 	 7.433001 
O 	 -4.372594 	 -0.312615 	 -2.757671 
O 	 3.618155 	 2.440258 	 1.859550 
O 	 -6.583550 	 0.804544 	 -7.364583 
O 	 -5.394744 	 -5.980357 	 4.078809 
O 	 6.622509 	 4.055970 	 4.543739 
O 	 2.875776 	 1.025773 	 -5.445569 
O 	 -0.549211 	 -4.606196 	 6.321623 
O 	 1.452217 	 -0.033791 	 -2.984578 
O 	 2.684889 	 -3.510816 	 -3.184706 
O 	 2.817923 	 -0.271971 	 -0.699594 
O 	 -2.706986 	 5.379866 	 -4.903250 
O 	 1.479335 	 -1.698712 	 -5.233389 
O 	 1.979906 	 4.546540 	 5.898452 
O 	 -5.757343 	 6.837194 	 1.928023 
O 	 5.239007 	 -0.778708 	 -3.378777 
O 	 2.333510 	 5.923464 	 -6.843150 
O 	 -1.329716 	 -4.369749 	 -5.739999 
O 	 2.176802 	 -1.714995 	 6.122177 
O 	 -1.774796 	 0.150299 	 -5.680034 
O 	 -5.331133 	 -0.107741 	 1.648448 
O 	 -4.007140 	 -1.276918 	 5.152970 
O 	 -4.872360 	 4.837160 	 3.730297 
O 	 -6.014225 	 -4.849815 	 7.128398 
O 	 -3.816448 	 3.984520 	 6.331411 
O 	 -5.576608 	 -1.616123 	 -4.849173 
O 	 -1.748928 	 3.157432 	 -2.952396 
O 	 5.816015 	 -5.537710 	 6.424635 
O 	 2.129555 	 -4.465699 	 -7.387241 
O 	 0.971215 	 1.963109 	 3.209306 
O 	 -3.231628 	 -6.794055 	 -2.911483 
O 	 -4.689356 	 2.288908 	 0.421667 
K 	 5.142266 	 4.955939 	 2.062768 
