333
conformation = 70
H 	 5.007488 	 -7.463937 	 -3.503080 
H 	 5.352691 	 -6.182665 	 -2.658690 
H 	 1.467200 	 4.712092 	 2.231958 
H 	 2.498891 	 3.834374 	 1.372346 
H 	 6.549871 	 -7.413035 	 3.828009 
H 	 6.676145 	 -6.304418 	 2.770259 
H 	 2.024319 	 -6.493952 	 -5.281662 
H 	 3.495422 	 -6.545468 	 -4.857996 
H 	 5.818982 	 6.072994 	 7.118520 
H 	 5.204740 	 6.558577 	 5.735961 
H 	 3.361200 	 5.694263 	 4.872567 
H 	 3.782664 	 7.030963 	 4.421481 
H 	 -5.663201 	 3.972247 	 -4.788170 
H 	 -6.616805 	 5.197119 	 -5.092827 
H 	 5.436836 	 0.213818 	 4.851640 
H 	 6.977286 	 0.047337 	 4.360398 
H 	 -5.990532 	 5.469941 	 -1.054991 
H 	 -6.147895 	 5.789133 	 0.442098 
H 	 6.657992 	 -1.878980 	 4.773412 
H 	 -6.872928 	 -2.627815 	 4.540570 
H 	 0.213467 	 -6.840328 	 -3.869203 
H 	 -0.078646 	 -5.596679 	 -4.706454 
H 	 -5.414485 	 -0.073209 	 4.707090 
H 	 -6.247585 	 1.209007 	 4.085429 
H 	 -0.815009 	 -2.175108 	 4.062493 
H 	 -0.914274 	 -1.505593 	 5.504852 
H 	 3.756243 	 -0.419203 	 6.118463 
H 	 4.588272 	 0.646512 	 7.150356 
H 	 -2.086807 	 -6.431766 	 0.133608 
H 	 -3.011759 	 -5.217333 	 0.001631 
H 	 3.112020 	 -5.711651 	 4.791227 
H 	 4.651062 	 -5.869271 	 5.184234 
H 	 0.534894 	 6.328260 	 3.351018 
H 	 -0.819485 	 5.379282 	 3.196932 
H 	 7.495097 	 3.237792 	 0.724990 
H 	 6.484594 	 2.053907 	 0.694548 
H 	 -4.978176 	 2.445863 	 -2.814713 
H 	 -6.365225 	 1.898239 	 -2.542035 
H 	 -2.765924 	 1.561413 	 -0.643976 
H 	 -1.575887 	 1.787763 	 -1.609433 
H 	 -5.419313 	 -4.429343 	 -2.692565 
H 	 -5.511230 	 -3.722097 	 -1.246236 
H 	 -1.301651 	 -0.660668 	 -0.747422 
H 	 -1.723907 	 -1.989050 	 -1.237918 
H 	 4.957579 	 4.825654 	 -3.249324 
H 	 3.524108 	 5.475637 	 -3.731155 
H 	 6.297550 	 -4.893683 	 -6.004195 
H 	 6.074643 	 -5.784281 	 -4.719882 
H 	 -1.679444 	 3.718940 	 7.274134 
H 	 -1.323701 	 4.577392 	 -6.469613 
H 	 -2.109043 	 -6.584721 	 4.497849 
H 	 -3.175930 	 -5.634279 	 3.964136 
H 	 -4.146504 	 -3.486838 	 2.520264 
H 	 -4.982196 	 -3.999533 	 3.602527 
H 	 -1.640373 	 -4.635312 	 -2.261714 
H 	 -3.091676 	 -4.238206 	 -2.082727 
H 	 4.207443 	 -3.305714 	 0.501554 
H 	 4.681562 	 -2.785896 	 1.902411 
H 	 4.878108 	 2.492748 	 -2.140050 
H 	 4.414108 	 3.017591 	 -0.726285 
H 	 1.188109 	 -6.111640 	 3.299372 
H 	 2.135940 	 -6.815043 	 2.336689 
H 	 4.089934 	 2.176021 	 5.851183 
H 	 3.685239 	 3.675371 	 5.675415 
H 	 3.034337 	 7.323691 	 -0.410911 
H 	 2.209623 	 6.402431 	 -1.314394 
H 	 4.968920 	 -0.633180 	 0.964003 
H 	 5.623083 	 0.000885 	 2.329487 
H 	 6.610022 	 4.524826 	 -6.015151 
H 	 5.245433 	 5.115961 	 -5.748123 
H 	 1.445338 	 4.286828 	 -3.792069 
H 	 0.930457 	 5.809395 	 -3.746707 
H 	 7.090747 	 4.015118 	 -1.911843 
H 	 7.160776 	 3.769334 	 -3.442921 
H 	 -2.571194 	 5.813812 	 -0.943774 
H 	 -1.692304 	 4.675571 	 -1.389454 
H 	 -1.620371 	 1.496355 	 5.249541 
H 	 -2.451353 	 1.951444 	 4.022439 
H 	 1.297301 	 -0.173681 	 2.933989 
H 	 1.186229 	 -1.501595 	 2.233619 
H 	 -3.387893 	 -3.135734 	 0.517057 
H 	 -2.037122 	 -3.083749 	 1.386261 
H 	 1.336924 	 2.439430 	 6.176692 
H 	 2.193550 	 1.134353 	 6.321215 
H 	 7.225685 	 -2.645234 	 6.996759 
H 	 -6.787648 	 -2.563566 	 -6.537054 
H 	 4.009936 	 -6.325716 	 2.601467 
H 	 3.941001 	 -5.640081 	 1.226689 
H 	 -3.093100 	 -0.361522 	 3.621708 
H 	 -3.594788 	 0.021990 	 2.253143 
H 	 -0.612440 	 6.063849 	 -2.394650 
H 	 -1.501672 	 7.259273 	 -2.863341 
H 	 6.316837 	 -4.287352 	 1.321225 
H 	 -7.160044 	 -4.910545 	 1.791772 
H 	 -6.471625 	 -2.566364 	 2.546637 
H 	 7.194137 	 -2.065010 	 1.736130 
H 	 -2.596283 	 3.185037 	 -3.402157 
H 	 -4.055582 	 2.554819 	 -4.600511 
H 	 6.742050 	 0.719579 	 -3.692790 
H 	 7.590226 	 1.287782 	 -4.884417 
H 	 -5.530403 	 -7.288857 	 -5.679496 
H 	 -7.020314 	 -6.864324 	 -5.713545 
H 	 0.350087 	 -3.250068 	 1.793146 
H 	 -0.394293 	 -2.405506 	 0.609814 
H 	 1.516329 	 1.700412 	 -2.827179 
H 	 2.533126 	 2.888622 	 -2.648815 
H 	 -0.100775 	 -1.206350 	 -3.247225 
H 	 -0.972609 	 -2.473181 	 -3.482036 
H 	 -1.692671 	 3.591426 	 2.077938 
H 	 -2.244240 	 4.712321 	 1.253857 
H 	 1.903593 	 -3.873245 	 4.032221 
H 	 1.081223 	 -4.592012 	 5.137470 
H 	 4.939343 	 6.414883 	 -1.022024 
H 	 6.434145 	 6.346465 	 -0.565853 
H 	 -0.083376 	 -5.570725 	 -0.625114 
H 	 0.361758 	 -5.097132 	 -1.982430 
H 	 0.424869 	 7.094684 	 -0.275986 
H 	 0.321588 	 -6.996313 	 1.074789 
H 	 -1.126283 	 1.678650 	 0.578465 
H 	 -1.550641 	 1.271637 	 2.010890 
H 	 -3.873461 	 -1.775499 	 -6.601481 
H 	 -4.067058 	 -3.157110 	 7.419969 
H 	 -0.098537 	 0.222764 	 6.597459 
H 	 -1.304742 	 -0.223110 	 -7.388216 
H 	 3.068649 	 -4.040411 	 -1.076003 
H 	 2.025593 	 -4.381673 	 0.072889 
H 	 -4.776259 	 -1.059591 	 0.267962 
H 	 -4.548618 	 -1.167839 	 -1.273813 
H 	 -5.715822 	 -5.411361 	 -0.282652 
H 	 -5.675121 	 -6.741835 	 0.482559 
H 	 -4.663844 	 1.493086 	 -6.924935 
H 	 -3.225097 	 1.271168 	 -6.316364 
H 	 -3.122853 	 -5.251559 	 -6.074198 
H 	 -3.190691 	 -6.558806 	 -6.990888 
H 	 6.569077 	 1.555188 	 -7.191066 
H 	 5.545197 	 2.746993 	 -7.004458 
H 	 5.408202 	 -4.819470 	 -0.446061 
H 	 6.814127 	 -5.507887 	 -0.702320 
H 	 -4.130147 	 4.763508 	 -2.847182 
H 	 -4.210120 	 6.384752 	 -2.645594 
H 	 -6.374787 	 -4.554745 	 -4.907494 
H 	 -5.528363 	 -3.259257 	 -4.548959 
H 	 3.258945 	 -1.718029 	 3.079101 
H 	 4.177514 	 -2.246022 	 4.196485 
H 	 -5.754863 	 3.129811 	 3.102017 
H 	 -7.211627 	 3.013506 	 3.590559 
H 	 -0.412406 	 6.807817 	 5.206218 
H 	 -1.061240 	 7.036732 	 6.575998 
H 	 -5.682781 	 4.275196 	 6.301443 
H 	 -6.315191 	 4.319806 	 -7.225895 
H 	 -5.722223 	 7.410368 	 6.556206 
H 	 -6.996633 	 6.889710 	 6.077694 
H 	 0.991753 	 2.003339 	 -5.501533 
H 	 -0.068005 	 2.957978 	 -6.091540 
H 	 1.448282 	 4.378936 	 -1.436859 
H 	 1.192768 	 5.085800 	 -0.162507 
H 	 5.525796 	 -2.380342 	 -5.946889 
H 	 4.216948 	 -3.183398 	 -5.241253 
H 	 -2.977701 	 6.052082 	 -6.866536 
H 	 -3.495862 	 6.178578 	 6.659095 
H 	 -4.688343 	 0.557942 	 -2.600182 
H 	 -3.272139 	 -0.010893 	 -2.628773 
H 	 4.338933 	 1.648204 	 1.644985 
H 	 2.921766 	 2.095007 	 2.214755 
H 	 -6.373087 	 0.967215 	 6.467896 
H 	 -6.460727 	 -0.122875 	 -7.389101 
H 	 -5.255923 	 -6.152924 	 3.037248 
H 	 -5.802310 	 -6.720257 	 4.350981 
H 	 6.232304 	 3.535486 	 5.058655 
H 	 7.250971 	 4.638471 	 5.213101 
H 	 3.785833 	 1.223941 	 -6.016845 
H 	 2.637780 	 0.240827 	 -5.804316 
H 	 -0.603801 	 -3.625513 	 5.808482 
H 	 -0.871674 	 -5.296845 	 5.947916 
H 	 2.130354 	 -0.189721 	 -2.148082 
H 	 2.267794 	 -0.172854 	 -3.623400 
H 	 2.469392 	 -2.520359 	 -3.566193 
H 	 2.582008 	 -4.029212 	 -3.986428 
H 	 3.153435 	 0.700582 	 -0.686449 
H 	 2.485890 	 -0.329944 	 0.176369 
H 	 -2.094628 	 5.591569 	 -4.167107 
H 	 -3.245180 	 4.646865 	 -4.799922 
H 	 0.645062 	 -1.521413 	 -4.958953 
H 	 1.601051 	 -2.437934 	 -5.759838 
H 	 1.256507 	 4.722371 	 5.381394 
H 	 2.132544 	 5.221668 	 6.598152 
H 	 -5.159899 	 6.164887 	 2.422209 
H 	 -6.556831 	 6.887936 	 2.151769 
H 	 5.018837 	 -1.223959 	 -2.624589 
H 	 5.137094 	 -1.368607 	 -4.088146 
H 	 2.068132 	 5.481507 	 -6.132503 
H 	 2.772682 	 6.746637 	 -6.351676 
H 	 -1.339866 	 -4.501112 	 -6.793763 
H 	 -1.228837 	 -3.352560 	 -5.775282 
H 	 2.427689 	 -2.568435 	 6.462623 
H 	 1.431995 	 -1.665547 	 5.625588 
H 	 -1.001095 	 0.810612 	 -5.515256 
H 	 -1.683066 	 -0.549605 	 -5.056844 
H 	 -5.954581 	 -0.492184 	 2.086040 
H 	 -5.504321 	 0.827608 	 1.352009 
H 	 -4.144396 	 -2.054297 	 4.673951 
H 	 -3.624663 	 -1.413839 	 6.052765 
H 	 -4.758994 	 5.459327 	 4.478449 
H 	 -3.880792 	 4.778414 	 3.466969 
H 	 -5.093613 	 -5.230605 	 -7.329258 
H 	 -5.693926 	 -4.809649 	 6.220077 
H 	 -3.760238 	 3.366435 	 7.073226 
H 	 -3.192327 	 3.464540 	 5.683976 
H 	 -6.167674 	 -1.030563 	 -4.725566 
H 	 -4.782240 	 -1.240074 	 -4.335511 
H 	 -1.092070 	 2.748531 	 -3.751141 
H 	 -5.066847 	 2.224211 	 -0.480790 
H 	 6.845196 	 -5.079162 	 6.323602 
H 	 6.081255 	 -6.441536 	 6.583490 
H 	 2.612392 	 -5.292346 	 -7.063185 
H 	 1.229220 	 -4.630945 	 7.299738 
H 	 0.417534 	 2.285196 	 3.819140 
H 	 0.491939 	 2.052676 	 2.308392 
H 	 -3.082822 	 -6.512064 	 -2.000742 
H 	 -2.917611 	 -5.860468 	 -3.297473 
H 	 -4.809689 	 3.324775 	 0.591585 
O 	 5.080614 	 -6.478192 	 -3.563459 
O 	 2.100839 	 4.752220 	 1.469194 
O 	 6.890133 	 -7.268369 	 2.936480 
O 	 2.922370 	 -6.504456 	 -5.659312 
O 	 5.945671 	 6.736515 	 6.377659 
O 	 4.044495 	 6.070840 	 4.313766 
O 	 -6.638259 	 4.206136 	 -5.025686 
O 	 6.049829 	 -0.336612 	 4.295170 
O 	 -6.679419 	 5.665758 	 -0.400954 
O 	 7.271004 	 -2.569262 	 5.119099 
O 	 0.596672 	 -5.930521 	 -4.061136 
O 	 -6.180918 	 0.532192 	 4.839040 
O 	 -0.422741 	 -2.188306 	 4.935770 
O 	 4.167740 	 0.491866 	 6.258944 
O 	 -2.978057 	 -6.159075 	 -0.211273 
O 	 3.974609 	 -6.047869 	 4.472878 
O 	 0.021577 	 5.563244 	 3.754031 
O 	 6.689961 	 2.921576 	 0.330365 
O 	 -5.520509 	 1.965444 	 -2.106665 
O 	 -1.929670 	 1.135431 	 -0.973860 
O 	 -5.105922 	 -4.481536 	 -1.738027 
O 	 -1.028798 	 -1.583345 	 -0.769958 
O 	 4.499984 	 5.465530 	 -3.813884 
O 	 6.781422 	 -5.425771 	 -5.366403 
O 	 -0.901556 	 4.197730 	 -7.255811 
O 	 -2.210182 	 -5.794556 	 3.863014 
O 	 -4.760144 	 -3.133514 	 3.207824 
O 	 -2.324080 	 -4.083164 	 -2.696165 
O 	 4.979381 	 -2.846747 	 0.944707 
O 	 4.116853 	 2.575740 	 -1.525303 
O 	 1.204447 	 -6.894445 	 2.733063 
O 	 4.435315 	 3.022784 	 5.571094 
O 	 2.903108 	 7.102092 	 -1.363929 
O 	 5.261758 	 0.208242 	 1.381218 
O 	 5.756579 	 4.738587 	 -6.493341 
O 	 1.556847 	 5.218489 	 -4.264809 
O 	 6.533000 	 3.956400 	 -2.719692 
O 	 -1.695576 	 5.431588 	 -0.772480 
O 	 -2.177268 	 2.278199 	 4.890633 
O 	 1.783697 	 -0.746912 	 2.300303 
O 	 -2.867947 	 -3.609161 	 1.193085 
O 	 1.243053 	 1.497997 	 6.375897 
O 	 7.335683 	 -2.207747 	 -6.995318 
O 	 3.681018 	 -6.449136 	 1.686260 
O 	 -2.797209 	 0.127068 	 2.841808 
O 	 -0.759748 	 6.668648 	 -3.198381 
O 	 6.840803 	 -4.586402 	 2.101452 
O 	 -6.973931 	 -1.775870 	 2.264533 
O 	 -4.242853 	 3.283926 	 -3.983392 
O 	 7.636820 	 0.673684 	 -4.129944 
O 	 -6.414301 	 7.264619 	 -5.898477 
O 	 -0.258617 	 -2.527842 	 1.603464 
O 	 1.591930 	 2.742412 	 -2.707139 
O 	 -0.720184 	 -1.628219 	 -3.909485 
O 	 -2.159463 	 4.433436 	 2.167996 
O 	 1.708585 	 -4.759149 	 4.365689 
O 	 5.517182 	 6.200415 	 -0.236298 
O 	 -0.090319 	 -4.744904 	 -1.168828 
O 	 -0.122747 	 -7.124387 	 0.187122 
O 	 -1.057461 	 1.983675 	 1.547076 
O 	 -3.463137 	 -2.416714 	 -7.241625 
O 	 -1.019725 	 -0.112928 	 6.569114 
O 	 2.983209 	 -4.423676 	 -0.187901 
O 	 -4.659955 	 -1.766440 	 -0.477522 
O 	 -6.176756 	 -5.930088 	 0.413605 
O 	 -3.778835 	 1.879029 	 -6.875700 
O 	 -3.691233 	 -5.747339 	 -6.700355 
O 	 5.726647 	 1.833838 	 -6.711268 
O 	 5.961842 	 -5.303114 	 -1.112563 
O 	 -4.357845 	 5.489206 	 -2.243276 
O 	 -5.498480 	 -4.269065 	 -4.630941 
O 	 3.737031 	 -2.523956 	 3.328676 
O 	 -6.533277 	 2.504493 	 3.029180 
O 	 -0.432819 	 -7.411909 	 5.927252 
O 	 -6.576242 	 4.397870 	 6.735221 
O 	 -6.075839 	 6.949096 	 5.764875 
O 	 0.066800 	 2.243577 	 -5.424747 
O 	 1.077230 	 5.198186 	 -1.115462 
O 	 4.570617 	 -2.351875 	 -5.664313 
O 	 -3.181879 	 6.717800 	 7.386151 
O 	 -4.200532 	 -0.278851 	 -2.781552 
O 	 3.727237 	 2.409937 	 1.722064 
O 	 -6.563368 	 0.834989 	 -7.422113 
O 	 -5.276154 	 -5.940357 	 4.027003 
O 	 6.731944 	 4.138199 	 4.466024 
O 	 2.994089 	 1.088959 	 -5.475528 
O 	 -0.448471 	 -4.489206 	 6.341107 
O 	 1.548752 	 0.010614 	 -2.959625 
O 	 2.725204 	 -3.397674 	 -3.262442 
O 	 2.853854 	 -0.251938 	 -0.732899 
O 	 -2.600635 	 5.383478 	 -5.017616 
O 	 1.578084 	 -1.592424 	 -5.303303 
O 	 2.091804 	 4.590335 	 5.865342 
O 	 -5.595891 	 6.846330 	 1.891834 
O 	 5.291900 	 -0.744196 	 -3.404453 
O 	 2.380650 	 5.995547 	 -6.891258 
O 	 -1.303296 	 -4.324125 	 -5.855594 
O 	 2.289919 	 -1.663917 	 6.122355 
O 	 -1.685522 	 0.147704 	 -5.737210 
O 	 -5.236778 	 -0.063306 	 1.584349 
O 	 -3.879054 	 -1.230646 	 5.091899 
O 	 -4.794882 	 4.898771 	 3.684942 
O 	 -5.943690 	 -4.784278 	 7.149460 
O 	 -3.752411 	 3.973819 	 6.326039 
O 	 -5.434243 	 -1.600436 	 -4.941081 
O 	 -1.627347 	 3.222526 	 -3.057799 
O 	 5.934212 	 -5.468950 	 6.381777 
O 	 2.201055 	 -4.441109 	 -7.369292 
O 	 1.056772 	 2.012687 	 3.168798 
O 	 -3.132782 	 -6.796469 	 -2.976874 
O 	 -4.644304 	 2.375982 	 0.414817 
K 	 5.213831 	 4.991173 	 2.039699 
