333
conformation = 23
H 	 4.933814 	 -7.504701 	 -3.360904 
H 	 4.944709 	 -6.010237 	 -2.695442 
H 	 1.392505 	 4.495419 	 2.091266 
H 	 2.540052 	 3.849370 	 1.367478 
H 	 6.920937 	 -7.444623 	 4.230969 
H 	 6.444111 	 -6.458249 	 3.016362 
H 	 2.335833 	 -6.389243 	 -4.795067 
H 	 3.865935 	 -6.395699 	 -4.959012 
H 	 5.885851 	 6.066386 	 7.142000 
H 	 5.299084 	 6.222817 	 5.678008 
H 	 3.287478 	 5.480469 	 4.766528 
H 	 3.851679 	 6.973806 	 4.452406 
H 	 -5.883745 	 3.792340 	 -4.647798 
H 	 -6.324065 	 5.246475 	 -5.111463 
H 	 5.406333 	 -0.272106 	 5.083696 
H 	 6.788479 	 0.219746 	 4.611740 
H 	 -6.084140 	 5.765731 	 -1.093352 
H 	 -6.579577 	 6.467382 	 0.242889 
H 	 6.933024 	 -2.049238 	 4.568472 
H 	 -6.779092 	 -2.820131 	 4.854909 
H 	 0.089125 	 -6.542891 	 -3.657617 
H 	 -0.076165 	 -5.196317 	 -4.570834 
H 	 -5.442336 	 -0.050118 	 4.906246 
H 	 -6.183476 	 1.089762 	 4.136447 
H 	 -0.922982 	 -2.071659 	 4.101787 
H 	 -0.863171 	 -1.529204 	 5.596798 
H 	 3.440517 	 -0.457517 	 6.751502 
H 	 4.572505 	 0.591811 	 7.181781 
H 	 -1.938482 	 -6.586428 	 0.092249 
H 	 -2.962593 	 -5.524211 	 0.567969 
H 	 3.144596 	 -5.627982 	 4.453149 
H 	 4.617413 	 -5.807019 	 5.097090 
H 	 0.109507 	 6.528477 	 3.340826 
H 	 -0.875921 	 5.168429 	 3.176922 
H 	 7.249017 	 2.847542 	 1.056550 
H 	 6.235962 	 1.893012 	 0.556830 
H 	 -5.076307 	 2.349454 	 -3.047072 
H 	 -6.410678 	 1.547119 	 -2.543693 
H 	 -3.136770 	 1.300429 	 -0.742163 
H 	 -2.032547 	 1.702175 	 -1.728605 
H 	 -5.381648 	 -4.335732 	 -2.833965 
H 	 -5.019133 	 -3.511649 	 -1.501233 
H 	 -1.722474 	 -0.895265 	 -1.016327 
H 	 -1.577635 	 -2.439195 	 -1.174408 
H 	 4.663605 	 4.853481 	 -3.046763 
H 	 3.363426 	 5.339255 	 -3.784306 
H 	 6.236375 	 -5.709165 	 -6.273526 
H 	 6.196626 	 -5.773858 	 -4.682326 
H 	 -1.443030 	 4.282285 	 6.944602 
H 	 -1.769632 	 4.575907 	 -6.396677 
H 	 -2.156745 	 -6.698829 	 4.233563 
H 	 -3.058244 	 -5.700254 	 3.457496 
H 	 -4.265722 	 -3.109242 	 2.473384 
H 	 -5.058759 	 -4.127357 	 3.465287 
H 	 -1.873284 	 -4.538897 	 -1.878211 
H 	 -3.250029 	 -4.012350 	 -2.487942 
H 	 4.306333 	 -2.927679 	 0.302407 
H 	 4.432315 	 -2.697140 	 1.795091 
H 	 4.798493 	 2.552757 	 -1.921659 
H 	 4.273580 	 3.186409 	 -0.682651 
H 	 1.031602 	 -6.116416 	 3.405992 
H 	 1.898429 	 -6.954197 	 2.352555 
H 	 4.202404 	 1.994757 	 5.492316 
H 	 3.582624 	 3.397354 	 5.678034 
H 	 2.909356 	 7.295946 	 -0.394746 
H 	 2.495595 	 6.376748 	 -1.556070 
H 	 4.908707 	 -0.668968 	 1.123703 
H 	 5.519359 	 -0.140212 	 2.439381 
H 	 6.340794 	 4.359273 	 -6.002879 
H 	 4.833543 	 4.727231 	 -5.756864 
H 	 1.277076 	 4.156656 	 -4.000677 
H 	 0.601641 	 5.661127 	 -4.142970 
H 	 6.890010 	 3.715824 	 -1.880702 
H 	 7.108592 	 4.286585 	 -3.292198 
H 	 -2.702719 	 5.387601 	 -1.043088 
H 	 -1.431053 	 4.477800 	 -1.006524 
H 	 -2.427826 	 1.781807 	 5.743624 
H 	 -2.474036 	 1.642596 	 4.170115 
H 	 1.815527 	 0.370844 	 2.484545 
H 	 0.883262 	 -0.842659 	 2.263867 
H 	 -3.430767 	 -2.758132 	 0.532183 
H 	 -2.212385 	 -3.407754 	 1.282289 
H 	 1.265193 	 2.582645 	 6.489203 
H 	 1.903133 	 1.133260 	 6.728309 
H 	 7.396154 	 -2.049123 	 6.867387 
H 	 -7.231712 	 -2.923081 	 -6.816206 
H 	 3.987880 	 -6.171736 	 2.294032 
H 	 3.418726 	 -5.901631 	 0.904133 
H 	 -2.686384 	 -0.381108 	 3.853878 
H 	 -3.533991 	 -0.000289 	 2.597928 
H 	 -0.633510 	 6.489546 	 -2.066747 
H 	 -1.690512 	 7.118404 	 -3.069018 
H 	 5.972674 	 -4.066244 	 1.674758 
H 	 7.199115 	 -4.816160 	 1.049203 
H 	 -6.332370 	 -2.526884 	 2.359940 
H 	 7.068423 	 -2.429109 	 1.911609 
H 	 -2.667400 	 3.105968 	 -3.385498 
H 	 -4.155878 	 2.794192 	 -4.864086 
H 	 6.801462 	 -0.136883 	 -4.067435 
H 	 7.050430 	 1.187269 	 -4.847944 
H 	 -5.739916 	 -7.140551 	 -5.881637 
H 	 -7.228350 	 -7.215062 	 -5.720491 
H 	 -0.068146 	 -3.364182 	 1.342750 
H 	 -0.692760 	 -2.215890 	 0.803331 
H 	 1.158374 	 1.883952 	 -2.850100 
H 	 2.418663 	 2.407336 	 -2.045351 
H 	 -0.177222 	 -1.191357 	 -3.365919 
H 	 -1.378541 	 -2.204157 	 -3.315222 
H 	 -2.117110 	 3.537677 	 1.776434 
H 	 -2.094035 	 4.918822 	 1.253120 
H 	 2.051616 	 -3.890948 	 4.554201 
H 	 0.740446 	 -4.659411 	 5.074821 
H 	 5.121511 	 6.628457 	 -0.915614 
H 	 6.485572 	 5.790147 	 -0.600630 
H 	 -0.114211 	 -5.789810 	 -1.091071 
H 	 0.401988 	 -4.623795 	 -2.021476 
H 	 -0.639051 	 6.864888 	 0.089138 
H 	 0.133745 	 -7.132446 	 1.148493 
H 	 -1.363754 	 1.689571 	 0.533800 
H 	 -1.747282 	 1.171248 	 1.973705 
H 	 -3.957418 	 -2.222041 	 -6.537999 
H 	 -3.856611 	 -3.509003 	 -7.230115 
H 	 -0.375228 	 0.443969 	 6.588333 
H 	 -1.423051 	 -0.265720 	 -7.334829 
H 	 3.165521 	 -4.679733 	 -1.171882 
H 	 2.061373 	 -4.527436 	 -0.225975 
H 	 -5.153525 	 -1.294478 	 0.166502 
H 	 -4.560726 	 -1.366605 	 -1.321234 
H 	 -5.722171 	 -5.619600 	 -0.615120 
H 	 -5.739160 	 -6.313511 	 0.811900 
H 	 -4.740062 	 1.420494 	 -7.057299 
H 	 -3.165575 	 1.280466 	 -6.864967 
H 	 -2.972588 	 -5.352567 	 -6.262818 
H 	 -3.480319 	 -6.500890 	 -7.181329 
H 	 6.694151 	 1.451463 	 -6.961627 
H 	 5.528757 	 2.457312 	 -7.044481 
H 	 5.502287 	 -4.804222 	 -0.470727 
H 	 6.417184 	 -5.950086 	 -0.820997 
H 	 -4.869630 	 4.763254 	 -2.830015 
H 	 -4.411716 	 6.216743 	 -2.720764 
H 	 -6.428678 	 -4.683003 	 -4.903961 
H 	 -5.807500 	 -3.276395 	 -4.861289 
H 	 3.085900 	 -1.898642 	 3.293412 
H 	 4.536293 	 -2.229452 	 3.843074 
H 	 -6.092484 	 3.161787 	 2.999654 
H 	 7.376058 	 3.024277 	 3.512361 
H 	 -0.297853 	 6.506397 	 5.404430 
H 	 -0.628200 	 7.101167 	 6.804914 
H 	 -5.646600 	 4.220307 	 6.663138 
H 	 -6.893863 	 4.429568 	 -7.327876 
H 	 -5.553658 	 6.689868 	 6.482289 
H 	 -6.966456 	 6.432829 	 5.782033 
H 	 0.907974 	 1.946752 	 -5.386978 
H 	 -0.216377 	 2.872684 	 -5.992053 
H 	 0.836104 	 4.273801 	 -1.499539 
H 	 1.372030 	 4.821030 	 -0.229481 
H 	 5.364788 	 -2.474883 	 -6.405175 
H 	 4.861144 	 -3.140958 	 -5.125648 
H 	 -3.244872 	 6.427209 	 -6.575001 
H 	 -3.142151 	 5.780259 	 6.941613 
H 	 -4.935963 	 0.546525 	 -2.615082 
H 	 -3.541811 	 -0.164879 	 -2.696626 
H 	 4.053974 	 1.735950 	 1.770396 
H 	 3.139296 	 2.290419 	 2.837494 
H 	 -6.524603 	 0.770607 	 6.564600 
H 	 -6.765305 	 0.004857 	 -6.946857 
H 	 -5.466607 	 -6.725631 	 3.420240 
H 	 -5.396133 	 -6.296591 	 4.924856 
H 	 5.714531 	 3.590391 	 4.694042 
H 	 7.104181 	 4.002156 	 5.418273 
H 	 3.696440 	 1.248229 	 -5.432458 
H 	 2.801343 	 0.021856 	 -5.707702 
H 	 -0.940898 	 -3.878776 	 5.698710 
H 	 -1.162705 	 -5.382339 	 5.665367 
H 	 1.766593 	 -0.177132 	 -2.255438 
H 	 1.972556 	 0.166116 	 -3.905154 
H 	 2.227812 	 -3.203226 	 -3.859692 
H 	 2.492371 	 -4.533676 	 -3.324441 
H 	 3.440570 	 0.573391 	 -0.868606 
H 	 2.372552 	 -0.197990 	 0.123677 
H 	 -1.881267 	 5.691934 	 -4.450024 
H 	 -3.225953 	 4.827459 	 -4.276056 
H 	 0.599267 	 -2.157614 	 -5.208166 
H 	 1.804257 	 -2.211448 	 -6.175246 
H 	 1.189596 	 4.857094 	 5.206738 
H 	 1.946909 	 5.139672 	 6.611929 
H 	 -5.549898 	 6.138325 	 2.435220 
H 	 -6.833964 	 7.049880 	 2.499897 
H 	 5.158420 	 -1.504234 	 -2.894731 
H 	 4.860798 	 -1.032728 	 -4.275176 
H 	 2.024597 	 5.546705 	 -6.058021 
H 	 2.503798 	 6.865964 	 -6.885776 
H 	 -0.739984 	 -4.105055 	 -6.478908 
H 	 -1.534748 	 -3.579866 	 -5.303780 
H 	 2.254801 	 -2.578457 	 6.545622 
H 	 1.218950 	 -1.819699 	 5.691148 
H 	 -1.126125 	 0.948010 	 -5.499221 
H 	 -1.603151 	 -0.424284 	 -5.004431 
H 	 -6.197819 	 -0.418815 	 1.742448 
H 	 -5.412415 	 0.859224 	 1.281246 
H 	 -4.326281 	 -1.985863 	 4.485812 
H 	 -3.822337 	 -1.760163 	 5.925726 
H 	 -4.862497 	 4.903630 	 4.601972 
H 	 -3.972438 	 4.784922 	 3.243970 
H 	 -5.275386 	 -5.120348 	 -7.303356 
H 	 -5.635288 	 -4.931060 	 6.024702 
H 	 -3.654247 	 3.377331 	 6.914563 
H 	 -3.473415 	 3.579472 	 5.424394 
H 	 -6.358979 	 -0.937788 	 -5.096346 
H 	 -5.176741 	 -1.035705 	 -4.150052 
H 	 -1.076515 	 3.283225 	 -3.479430 
H 	 -5.143325 	 2.518295 	 -0.473818 
H 	 6.627833 	 -5.050880 	 6.225339 
H 	 6.013083 	 -6.480204 	 6.436093 
H 	 2.579307 	 -4.965135 	 -6.870252 
H 	 1.387009 	 -4.980641 	 7.042506 
H 	 0.765868 	 1.872550 	 4.087123 
H 	 0.118661 	 1.945177 	 2.663879 
H 	 -3.279049 	 -6.349666 	 -2.030437 
H 	 -3.434263 	 -6.227073 	 -3.672319 
H 	 -4.273267 	 3.114233 	 0.648816 
O 	 5.006374 	 -6.545008 	 -3.504176 
O 	 1.916693 	 4.655963 	 1.299537 
O 	 6.739291 	 -7.381149 	 3.246177 
O 	 3.014860 	 -6.506591 	 -5.464461 
O 	 5.930527 	 6.630278 	 6.329459 
O 	 3.975219 	 5.983773 	 4.325656 
O 	 -6.582020 	 4.293525 	 -5.094112 
O 	 5.987800 	 -0.285308 	 4.267170 
O 	 -6.705852 	 5.666379 	 -0.364893 
O 	 7.230553 	 -2.709154 	 5.235914 
O 	 0.563191 	 -5.793576 	 -4.100560 
O 	 -6.255640 	 0.492155 	 4.946684 
O 	 -0.626147 	 -2.283612 	 5.020184 
O 	 4.052397 	 0.244325 	 6.394153 
O 	 -2.905096 	 -6.331976 	 0.055887 
O 	 3.941535 	 -6.225185 	 4.495266 
O 	 -0.101463 	 5.612504 	 3.686524 
O 	 6.515106 	 2.818328 	 0.414806 
O 	 -5.547950 	 1.933490 	 -2.254059 
O 	 -2.212534 	 1.082254 	 -1.032180 
O 	 -5.065874 	 -4.419538 	 -1.871288 
O 	 -1.099864 	 -1.618848 	 -0.991410 
O 	 4.324154 	 5.387650 	 -3.835738 
O 	 6.662616 	 -5.368399 	 -5.478323 
O 	 -1.125775 	 4.204191 	 -7.028393 
O 	 -2.174846 	 -5.762249 	 3.902877 
O 	 -4.881165 	 -3.188686 	 3.249776 
O 	 -2.282655 	 -4.173119 	 -2.690375 
O 	 4.999759 	 -2.774440 	 1.002807 
O 	 4.019341 	 2.476471 	 -1.293853 
O 	 1.012180 	 -6.904650 	 2.825688 
O 	 4.426552 	 2.941394 	 5.545629 
O 	 3.046420 	 7.159259 	 -1.355612 
O 	 5.304079 	 0.167017 	 1.482286 
O 	 5.476711 	 4.596240 	 -6.461969 
O 	 1.448291 	 5.150968 	 -4.274623 
O 	 6.447277 	 3.914814 	 -2.693600 
O 	 -1.861306 	 5.243837 	 -0.560390 
O 	 -2.158277 	 2.206407 	 4.865302 
O 	 1.800662 	 -0.590337 	 2.338995 
O 	 -3.166082 	 -3.555451 	 1.058947 
O 	 1.077870 	 1.620639 	 6.376059 
O 	 7.293077 	 -2.006177 	 -7.004096 
O 	 3.536894 	 -6.626310 	 1.558019 
O 	 -2.620307 	 -0.009251 	 2.965291 
O 	 -0.842278 	 6.596628 	 -3.059684 
O 	 6.755571 	 -4.622403 	 1.936536 
O 	 -7.078648 	 -1.907104 	 2.232999 
O 	 -4.261164 	 3.221508 	 -3.987138 
O 	 7.473733 	 0.596717 	 -4.166470 
O 	 -6.447217 	 7.097576 	 -5.777234 
O 	 -0.387215 	 -2.558092 	 1.696078 
O 	 1.758502 	 2.695654 	 -2.658828 
O 	 -0.873438 	 -1.665393 	 -3.934602 
O 	 -2.331038 	 4.457740 	 2.050857 
O 	 1.531665 	 -4.748242 	 4.451850 
O 	 5.577217 	 5.987893 	 -0.258339 
O 	 -0.073611 	 -4.810477 	 -1.188527 
O 	 -0.140374 	 -7.173401 	 0.181224 
O 	 -1.249856 	 1.883257 	 1.512877 
O 	 -3.586720 	 -2.570672 	 -7.401224 
O 	 -1.064585 	 -0.258522 	 6.619929 
O 	 3.038395 	 -4.373820 	 -0.245062 
O 	 -4.735308 	 -1.939598 	 -0.515229 
O 	 -6.273921 	 -5.845456 	 0.192602 
O 	 -3.908478 	 1.912130 	 -6.926515 
O 	 -3.806047 	 -5.690950 	 -6.665509 
O 	 5.695946 	 1.516223 	 -6.852950 
O 	 5.798342 	 -5.313796 	 -1.221201 
O 	 -4.655294 	 5.443907 	 -2.157551 
O 	 -5.640920 	 -4.234938 	 -4.586365 
O 	 3.780914 	 -2.562800 	 3.364868 
O 	 -6.825445 	 2.501257 	 2.989231 
O 	 -0.329857 	 7.343032 	 5.901375 
O 	 -6.638453 	 4.323845 	 6.661223 
O 	 -6.155459 	 6.955891 	 5.767483 
O 	 -0.024645 	 2.257003 	 -5.254609 
O 	 1.065953 	 5.106763 	 -1.088479 
O 	 4.635416 	 -2.414172 	 -5.703119 
O 	 -3.163014 	 6.619292 	 7.400729 
O 	 -4.488524 	 -0.339326 	 -2.813568 
O 	 3.570060 	 2.565963 	 1.977465 
O 	 -6.469696 	 0.834652 	 -7.342823 
O 	 -5.413762 	 -5.917513 	 4.014384 
O 	 6.588067 	 4.042201 	 4.513173 
O 	 2.808901 	 0.978434 	 -5.526894 
O 	 -0.610345 	 -4.707933 	 6.162419 
O 	 1.383813 	 -0.036005 	 -3.152135 
O 	 2.795707 	 -3.628576 	 -3.194920 
O 	 2.899585 	 -0.234607 	 -0.731340 
O 	 -2.725908 	 5.442682 	 -4.901500 
O 	 1.542652 	 -1.863920 	 -5.314661 
O 	 1.909269 	 4.540156 	 5.786821 
O 	 -5.903296 	 6.915879 	 1.957464 
O 	 5.255669 	 -0.743830 	 -3.469739 
O 	 2.406245 	 5.875237 	 -6.870893 
O 	 -1.215299 	 -4.378865 	 -5.694492 
O 	 2.143831 	 -1.740095 	 6.021614 
O 	 -1.787405 	 0.251476 	 -5.717015 
O 	 -5.283017 	 -0.067237 	 1.620130 
O 	 -4.102558 	 -1.261438 	 5.096878 
O 	 -4.830731 	 4.829260 	 3.631853 
O 	 -6.005839 	 -4.819458 	 6.933194 
O 	 -3.786139 	 4.078810 	 6.226907 
O 	 -5.665838 	 -1.540113 	 -4.809226 
O 	 -1.808277 	 3.116351 	 -2.844821 
O 	 5.771774 	 -5.509343 	 6.382962 
O 	 2.123857 	 -4.375057 	 7.362541 
O 	 0.996973 	 1.957884 	 3.158751 
O 	 -3.281376 	 -6.805450 	 -2.907880 
O 	 -4.584134 	 2.243737 	 0.268823 
K 	 5.176120 	 4.982647 	 2.007697 
