333
conformation = 2
H 	 750.520037 	 226.237112 	 -44.392167 
H 	 751.265562 	 -772.418079 	 -43.707198 
H 	 -237.878749 	 223.639509 	 -39.005723 
H 	 -237.085447 	 222.441009 	 -39.480315 
H 	 -247.024684 	 -773.564194 	 -51.609576 
H 	 752.677294 	 -772.880942 	 -38.082720 
H 	 -236.911723 	 -772.741693 	 -45.967743 
H 	 749.675736 	 -772.661690 	 -45.667483 
H 	 751.744478 	 224.743466 	 -48.844827 
H 	 751.319385 	 225.157309 	 -50.314080 
H 	 749.283766 	 224.415476 	 -50.959488 
H 	 749.778897 	 225.713275 	 -51.582635 
H 	 -244.810075 	 222.685923 	 -46.002464 
H 	 -245.466272 	 224.146878 	 -46.283405 
H 	 751.302270 	 218.816749 	 -50.930275 
H 	 752.808212 	 218.804874 	 -51.398840 
H 	 -245.038196 	 224.438080 	 -42.036690 
H 	 -245.458164 	 225.058137 	 -40.765143 
H 	 752.847833 	 216.599682 	 -51.285385 
H 	 -245.903744 	 215.725169 	 -50.996115 
H 	 -238.896667 	 -772.793206 	 -44.689440 
H 	 -239.213954 	 -771.634506 	 -45.658962 
H 	 -244.727806 	 218.538357 	 -51.004010 
H 	 -245.222978 	 219.899185 	 948.304366 
H 	 -239.928538 	 216.646142 	 948.204629 
H 	 -240.184232 	 217.285435 	 -50.281914 
H 	 749.418537 	 218.111865 	 -49.533893 
H 	 750.450393 	 219.028515 	 -48.603501 
H 	 -241.039487 	 -772.810017 	 -40.574856 
H 	 -242.293741 	 -771.868256 	 -40.539249 
H 	 -236.052437 	 -772.321008 	 -51.349754 
H 	 750.407275 	 -772.248622 	 -50.653396 
H 	 -238.901188 	 225.240235 	 -37.735864 
H 	 -239.988241 	 223.987749 	 -37.815179 
H 	 -246.859939 	 221.398130 	 -39.846446 
H 	 751.857363 	 220.783924 	 -40.444494 
H 	 -244.121051 	 221.296583 	 -43.980538 
H 	 -245.511543 	 220.651231 	 -43.858307 
H 	 -242.276177 	 220.212018 	 -41.643759 
H 	 -241.208914 	 220.640599 	 -42.731898 
H 	 -244.604396 	 -770.582535 	 -43.843320 
H 	 -244.280912 	 215.201894 	 -42.420999 
H 	 -240.877535 	 217.893248 	 -42.083368 
H 	 -240.739672 	 216.389251 	 -42.299813 
H 	 750.750903 	 223.802365 	 -44.193136 
H 	 749.278764 	 224.180718 	 -44.761268 
H 	 752.226201 	 -771.774450 	 -47.439115 
H 	 751.999527 	 -772.146394 	 -45.976318 
H 	 -240.479010 	 223.311041 	 -48.812422 
H 	 -240.970917 	 223.372712 	 -47.332128 
H 	 -240.998118 	 -773.034418 	 948.081983 
H 	 -242.213820 	 -772.155828 	 947.909107 
H 	 -243.403101 	 215.364782 	 -38.521214 
H 	 -244.290883 	 214.597319 	 947.656543 
H 	 -240.845954 	 -770.943636 	 -43.081361 
H 	 -242.305355 	 -770.559046 	 -43.473985 
H 	 750.389868 	 215.808438 	 -40.728297 
H 	 750.356064 	 216.188664 	 -39.220210 
H 	 750.629554 	 221.433662 	 -42.939005 
H 	 750.333130 	 221.883109 	 -41.505029 
H 	 -238.180175 	 -772.397146 	 -37.774327 
H 	 -237.299012 	 -773.511780 	 -38.493738 
H 	 750.220141 	 220.743578 	 -50.485081 
H 	 749.476167 	 222.193423 	 -50.527877 
H 	 -236.268046 	 226.249777 	 -41.460828 
H 	 -236.573695 	 225.304208 	 -42.581720 
H 	 751.436024 	 218.101517 	 -39.798613 
H 	 751.701221 	 218.898694 	 -38.570096 
H 	 752.080213 	 223.300103 	 -46.717346 
H 	 750.561984 	 223.684165 	 -46.950679 
H 	 -237.820299 	 222.983254 	 -45.067351 
H 	 -238.439094 	 224.329082 	 -44.844446 
H 	 752.787362 	 222.861959 	 -42.773570 
H 	 -246.820127 	 222.845701 	 -44.276743 
H 	 -241.893918 	 223.929702 	 -42.035146 
H 	 -240.387531 	 223.475158 	 -41.913229 
H 	 -241.652228 	 220.603007 	 -50.179608 
H 	 -241.526347 	 220.275187 	 948.270053 
H 	 -237.476416 	 219.277065 	 -38.495181 
H 	 -238.132847 	 217.917505 	 -38.639932 
H 	 -242.845726 	 215.740790 	 -40.726514 
H 	 -241.591210 	 215.787646 	 -39.690227 
H 	 -237.977394 	 221.452988 	 -49.481379 
H 	 -237.220318 	 220.118246 	 -49.253757 
H 	 -246.962128 	 216.952637 	 -48.970551 
H 	 -246.275173 	 216.058551 	 -47.931286 
H 	 749.919453 	 -772.661327 	 -38.730759 
H 	 749.399203 	 -772.222660 	 -40.073354 
H 	 -241.711381 	 218.083597 	 947.929945 
H 	 -242.563728 	 218.615108 	 -38.343576 
H 	 -239.726994 	 225.156964 	 -43.111280 
H 	 -240.793035 	 225.948587 	 -43.767827 
H 	 751.884632 	 214.577815 	 -39.262241 
H 	 -246.733637 	 -771.202077 	 -39.978292 
H 	 -245.596824 	 216.358694 	 -38.262838 
H 	 -246.791249 	 216.260817 	 -39.334526 
H 	 -241.886724 	 221.939336 	 -44.231794 
H 	 -243.163659 	 221.407419 	 -45.754651 
H 	 752.860998 	 218.806511 	 -44.582511 
H 	 752.682298 	 219.897825 	 -45.594360 
H 	 -244.781120 	 -773.557018 	 -46.858178 
H 	 -246.226218 	 226.345333 	 -46.280762 
H 	 -239.010913 	 215.597910 	 -39.806742 
H 	 -239.630599 	 216.850962 	 -40.043259 
H 	 -237.729370 	 220.667439 	 -43.744764 
H 	 -236.485368 	 221.491355 	 -43.210548 
H 	 -239.366424 	 217.607093 	 -44.428718 
H 	 -240.423060 	 216.576404 	 -44.176127 
H 	 -241.192619 	 222.348670 	 -38.953016 
H 	 -241.556189 	 223.473570 	 -40.031666 
H 	 -237.066061 	 214.860235 	 -51.306393 
H 	 -238.338969 	 -771.043646 	 -50.706111 
H 	 751.026869 	 225.212443 	 -41.957275 
H 	 752.518832 	 224.853604 	 -41.631472 
H 	 -239.021764 	 -772.075141 	 -41.954656 
H 	 -238.843028 	 -771.023757 	 -43.153882 
H 	 -239.513067 	 225.506657 	 -40.733586 
H 	 -238.921952 	 -773.305058 	 -39.893728 
H 	 -240.402583 	 220.488476 	 -40.459496 
H 	 -240.907607 	 219.790403 	 -39.148817 
H 	 -243.503904 	 216.469359 	 -47.860525 
H 	 -242.871206 	 215.180759 	 -48.335145 
H 	 -239.537406 	 219.195115 	 -49.442496 
H 	 -240.427236 	 218.487496 	 -48.316045 
H 	 749.354017 	 -770.990961 	 -42.172866 
H 	 -237.016744 	 -770.536090 	 -41.685635 
H 	 -244.039337 	 217.355613 	 -40.795293 
H 	 -243.640882 	 217.342016 	 -42.328633 
H 	 -244.951783 	 -771.418824 	 -41.454739 
H 	 -244.777415 	 -772.668932 	 -40.555623 
H 	 -243.884959 	 220.182691 	 -48.171759 
H 	 -242.439262 	 220.186428 	 -47.402343 
H 	 -242.026881 	 -771.606973 	 -47.416095 
H 	 -242.665109 	 -772.444723 	 -48.453289 
H 	 752.613610 	 220.140808 	 -48.267792 
H 	 751.447977 	 221.077180 	 -48.187152 
H 	 751.401639 	 -771.199408 	 -41.421496 
H 	 752.387666 	 -772.264512 	 -41.921141 
H 	 -244.016733 	 223.589726 	 -43.881479 
H 	 -243.493850 	 225.101331 	 -43.550478 
H 	 -245.679918 	 -770.871660 	 -45.890572 
H 	 -245.000764 	 215.508848 	 -45.563303 
H 	 -236.070149 	 216.820062 	 -37.733184 
H 	 750.429993 	 216.636182 	 948.160735 
H 	 -245.320921 	 222.041084 	 -38.129264 
H 	 -246.644330 	 221.681611 	 947.717589 
H 	 -239.491652 	 225.320588 	 -50.639391 
H 	 -239.731057 	 225.658821 	 -49.149280 
H 	 -244.854964 	 222.714306 	 -49.426855 
H 	 -245.858152 	 222.964153 	 -48.251241 
H 	 -244.644037 	 225.474047 	 -49.433111 
H 	 -245.971290 	 225.112911 	 -50.085194 
H 	 -238.291565 	 220.719890 	 -46.286048 
H 	 -239.219277 	 221.797719 	 -46.907293 
H 	 -237.575139 	 223.074344 	 -42.529138 
H 	 -237.865724 	 223.763583 	 -41.180495 
H 	 751.482331 	 216.724974 	 -47.232984 
H 	 750.860773 	 215.467108 	 -46.343976 
H 	 -242.173971 	 225.236041 	 -47.493271 
H 	 -242.447587 	 224.477400 	 -48.897052 
H 	 -243.995531 	 219.276248 	 -43.507366 
H 	 -242.751075 	 218.610697 	 -44.160189 
H 	 749.980571 	 220.555335 	 -39.104142 
H 	 -236.138422 	 221.204545 	 -38.130063 
H 	 -245.509044 	 219.548678 	 -49.247650 
H 	 -245.553691 	 218.702169 	 -48.001718 
H 	 -244.870981 	 -772.850343 	 -37.653975 
H 	 -244.283848 	 -772.821536 	 -51.181785 
H 	 751.654846 	 222.358735 	 -51.087485 
H 	 -246.987572 	 222.789768 	 -50.567083 
H 	 749.550729 	 219.894284 	 -46.080612 
H 	 -236.362307 	 218.743142 	 -46.820245 
H 	 -240.072347 	 214.816053 	 -50.256884 
H 	 -240.225254 	 -771.878112 	 -50.203714 
H 	 -237.181697 	 218.578448 	 -43.518096 
H 	 -237.393977 	 218.777613 	 -45.070850 
H 	 -236.647808 	 215.608596 	 -44.882864 
H 	 -236.750270 	 -770.930476 	 -44.319618 
H 	 749.635098 	 219.247126 	 -41.764181 
H 	 -236.327348 	 218.460359 	 -40.776147 
H 	 -241.228739 	 224.205894 	 -45.132873 
H 	 -242.534193 	 223.567167 	 -45.736662 
H 	 -238.455723 	 216.568008 	 -46.290567 
H 	 -237.335338 	 216.364551 	 -47.290623 
H 	 -238.017089 	 223.553054 	 -50.762727 
H 	 -237.296156 	 223.829428 	 -49.337140 
H 	 -244.638343 	 224.932451 	 -38.739810 
H 	 -246.011128 	 225.672554 	 -38.536904 
H 	 751.302206 	 217.410611 	 -43.802458 
H 	 750.982912 	 217.387910 	 -45.296809 
H 	 -237.056091 	 224.526388 	 -46.946199 
H 	 -236.261581 	 225.494557 	 -47.811730 
H 	 -239.883226 	 214.654094 	 -47.490045 
H 	 -240.603003 	 215.113801 	 -46.060788 
H 	 -236.834041 	 216.071182 	 -49.630611 
H 	 -237.938783 	 216.984603 	 -50.255848 
H 	 -240.263977 	 219.758035 	 -46.395310 
H 	 -240.873021 	 218.375996 	 -46.096049 
H 	 -245.202641 	 218.442694 	 -38.965940 
H 	 -244.445999 	 219.625650 	 -39.667189 
H 	 -243.516487 	 216.725985 	 -51.402148 
H 	 -243.069267 	 217.163383 	 -49.988148 
H 	 -244.054078 	 223.821099 	 -51.449684 
H 	 -242.972208 	 223.462132 	 -37.705494 
H 	 -244.521797 	 -771.314109 	 -48.451782 
H 	 -244.730520 	 -771.202743 	 -49.938536 
H 	 -242.890893 	 222.141068 	 -49.035073 
H 	 -242.294482 	 222.503739 	 -50.387121 
H 	 -245.527896 	 217.857005 	 -46.111081 
H 	 -244.432605 	 217.815296 	 -45.058328 
H 	 -240.459304 	 221.345207 	 -44.344634 
H 	 -244.153604 	 221.195313 	 -41.639567 
H 	 752.621149 	 -771.506461 	 -49.781932 
H 	 751.869906 	 -772.786093 	 -49.422740 
H 	 -236.390218 	 -770.887772 	 -47.903154 
H 	 -237.444429 	 -771.494481 	 -48.749081 
H 	 -238.188517 	 220.499161 	 948.224991 
H 	 -238.997815 	 220.820068 	 -38.072811 
H 	 -242.484567 	 -772.817342 	 -43.016181 
H 	 -242.643806 	 -772.515931 	 -44.541908 
H 	 -243.267909 	 221.872715 	 -40.500475 
O 	 750.997200 	 -772.926225 	 -44.524120 
O 	 -237.223027 	 223.372380 	 -39.714857 
O 	 752.611143 	 226.262676 	 -37.590409 
O 	 -236.044873 	 -772.767960 	 -46.407418 
O 	 751.959932 	 225.327201 	 -49.600962 
O 	 749.960437 	 224.730378 	 -51.562843 
O 	 -245.674223 	 223.192651 	 -46.122094 
O 	 751.917705 	 218.535225 	 948.359875 
O 	 -245.815341 	 224.448080 	 -41.386995 
O 	 -246.738344 	 215.993779 	 -50.619277 
O 	 -238.496730 	 -771.993619 	 -45.078488 
O 	 -245.383213 	 219.299702 	 -50.937815 
O 	 -239.811776 	 216.500484 	 -50.855643 
O 	 750.021554 	 218.894834 	 -49.458715 
O 	 -241.963953 	 -772.731619 	 -40.840510 
O 	 749.949328 	 -772.587764 	 -51.450096 
O 	 -239.231319 	 224.402480 	 947.737018 
O 	 752.463046 	 221.525415 	 -40.538723 
O 	 -244.711797 	 220.742347 	 -43.368021 
O 	 -241.478297 	 219.834351 	 -42.087591 
O 	 -244.073963 	 -770.657698 	 -43.011896 
O 	 -240.215516 	 217.139874 	 -42.082739 
O 	 750.245523 	 224.180900 	 -44.880189 
O 	 752.609710 	 -771.662031 	 -46.549059 
O 	 -240.307059 	 222.992318 	 -47.906717 
O 	 -241.242406 	 -772.058682 	 947.990056 
O 	 -244.005417 	 215.531314 	 -37.734966 
O 	 -241.373471 	 214.743952 	 -43.696143 
O 	 750.991560 	 216.124869 	 -40.014389 
O 	 750.079616 	 221.216378 	 -42.145586 
O 	 -238.202040 	 -773.248419 	 -38.220004 
O 	 750.363398 	 221.699594 	 -50.388443 
O 	 -235.929176 	 226.017493 	 -42.351131 
O 	 751.301242 	 219.011292 	 -39.466075 
O 	 751.376932 	 223.293887 	 -47.414238 
O 	 -237.684944 	 223.896461 	 -45.314223 
O 	 752.405472 	 222.641945 	 -43.666506 
O 	 -241.105980 	 223.949144 	 -41.477722 
O 	 -241.247885 	 220.953457 	 -51.046576 
O 	 -237.233448 	 218.305305 	 -38.678707 
O 	 -242.404563 	 215.284569 	 -39.987611 
O 	 -238.082621 	 220.520611 	 -49.550195 
O 	 -246.733721 	 216.895216 	 -48.043381 
O 	 749.474436 	 -773.024920 	 -39.509547 
O 	 -241.674173 	 218.722122 	 -37.953474 
O 	 -239.990060 	 225.442013 	 -44.012752 
O 	 752.730044 	 -771.007358 	 -39.135381 
O 	 -246.278916 	 216.851771 	 -38.794481 
O 	 -243.334212 	 222.019127 	 -45.018749 
O 	 -246.575809 	 219.375679 	 -45.229181 
O 	 -245.520533 	 225.818933 	 -46.735384 
O 	 -239.580575 	 216.196448 	 -39.279261 
O 	 -237.369786 	 221.550961 	 -43.664242 
O 	 -240.079346 	 217.101204 	 -44.950570 
O 	 -241.517937 	 223.297574 	 -38.983998 
O 	 -237.658286 	 -770.978458 	 -51.439786 
O 	 751.586523 	 224.686513 	 -41.349379 
O 	 -239.068831 	 -771.106659 	 -42.187407 
O 	 -239.290407 	 -773.545886 	 -40.783677 
O 	 -240.456487 	 220.623307 	 -39.509580 
O 	 -242.734466 	 216.151148 	 -48.425602 
O 	 -240.185345 	 218.530542 	 -49.272540 
O 	 -236.086295 	 -770.680665 	 -41.321840 
O 	 -243.847207 	 216.784953 	 -41.555576 
O 	 -245.446768 	 -772.091840 	 -40.960183 
O 	 -243.065871 	 220.745914 	 -47.953691 
O 	 -242.896451 	 -772.000499 	 -47.633298 
O 	 751.723493 	 220.183673 	 -47.867654 
O 	 751.744326 	 -771.607814 	 -42.259870 
O 	 -243.857552 	 224.252282 	 -43.146679 
O 	 -244.817617 	 -770.553637 	 -45.557948 
O 	 749.792366 	 216.216088 	 -37.602450 
O 	 -246.008453 	 221.316660 	 -38.071234 
O 	 -239.380475 	 226.082835 	 -50.001852 
O 	 -245.765435 	 223.056952 	 -49.230192 
O 	 -245.247123 	 225.764644 	 -50.149520 
O 	 -239.146842 	 221.105605 	 -46.179625 
O 	 -238.102333 	 223.827207 	 -42.184906 
O 	 750.704877 	 216.363296 	 -46.764618 
O 	 -242.246788 	 225.362179 	 -48.475377 
O 	 -243.619333 	 218.394490 	 -43.760450 
O 	 749.553447 	 221.423094 	 -38.889074 
O 	 -245.549064 	 219.637008 	 -48.252635 
O 	 -244.498274 	 -772.178505 	 948.096802 
O 	 752.507566 	 222.793613 	 -51.395998 
O 	 -236.379050 	 219.702161 	 -46.575772 
O 	 -239.799919 	 -771.088097 	 -49.807202 
O 	 -237.864253 	 218.732636 	 -44.200654 
O 	 -236.253613 	 215.006169 	 -44.181919 
O 	 -236.169406 	 218.578811 	 -41.713106 
O 	 -241.865483 	 224.274254 	 -45.908230 
O 	 -237.473102 	 216.735373 	 -46.410685 
O 	 -237.291887 	 223.274730 	 -50.174392 
O 	 -245.161365 	 225.780035 	 -38.906741 
O 	 751.173478 	 218.037817 	 -44.521775 
O 	 -236.676272 	 224.607453 	 -47.870881 
O 	 -240.262073 	 -770.715383 	 -46.635170 
O 	 -237.019164 	 216.968184 	 -49.893176 
O 	 -240.957367 	 219.108648 	 -46.724735 
O 	 -244.339110 	 218.741763 	 -39.384626 
O 	 -243.299344 	 217.531817 	 -50.854812 
O 	 -243.932496 	 223.580654 	 947.606945 
O 	 -245.176106 	 -771.067765 	 -49.101859 
O 	 -242.866935 	 222.914059 	 -49.701108 
O 	 -244.840606 	 217.275036 	 -45.828593 
O 	 -240.982495 	 221.874046 	 -43.694272 
O 	 751.725146 	 -771.809885 	 -49.480074 
O 	 -237.021161 	 -770.614873 	 -48.586980 
O 	 -238.096116 	 220.746783 	 -37.803049 
O 	 -242.470967 	 -773.226879 	 -43.872501 
O 	 -243.616305 	 221.008504 	 -40.825944 
K 	 751.175144 	 223.796749 	 -38.973714 
