333
conformation = 4
H 	 5.046273 	 7.308719 	 0.006953 
H 	 5.773867 	 -6.240866 	 0.671045 
H 	 1.725679 	 4.717436 	 5.360591 
H 	 2.590179 	 3.554660 	 4.861027 
H 	 -7.419561 	 -7.369611 	 -7.273278 
H 	 7.178561 	 -6.679112 	 6.314312 
H 	 2.698996 	 -6.578506 	 -1.552835 
H 	 4.221210 	 -6.472586 	 -1.327883 
H 	 6.260392 	 5.841114 	 -4.474940 
H 	 5.798036 	 6.248768 	 -5.934375 
H 	 3.786779 	 5.495930 	 -6.564879 
H 	 4.286046 	 6.794108 	 -7.178533 
H 	 -5.185884 	 3.759378 	 -1.623615 
H 	 -5.817207 	 5.211993 	 -1.891948 
H 	 5.806785 	 -0.148658 	 -6.571255 
H 	 7.320846 	 -0.066760 	 -7.043593 
H 	 -5.414784 	 5.544111 	 2.333254 
H 	 -5.853111 	 6.181938 	 3.591435 
H 	 7.342428 	 -2.300607 	 -6.899697 
H 	 -6.277452 	 -3.181147 	 -6.620702 
H 	 0.698278 	 -6.596354 	 -0.317600 
H 	 0.375801 	 -5.451023 	 -1.261213 
H 	 -5.105360 	 -0.393920 	 -6.610984 
H 	 -5.634831 	 0.977845 	 7.569781 
H 	 -0.325809 	 -2.252335 	 7.484301 
H 	 -0.568874 	 -1.646875 	 -5.906671 
H 	 3.952658 	 -0.776645 	 -5.161046 
H 	 4.967333 	 0.174424 	 -4.236403 
H 	 -1.425319 	 -6.628949 	 3.770126 
H 	 -2.679052 	 -5.661496 	 3.858430 
H 	 3.558434 	 -6.086076 	 -6.983219 
H 	 4.906513 	 -6.056725 	 -6.255427 
H 	 0.701991 	 6.349217 	 6.601325 
H 	 -0.331798 	 5.080769 	 6.564371 
H 	 -7.210140 	 2.510878 	 4.514319 
H 	 6.365602 	 1.873190 	 3.927459 
H 	 -4.526240 	 2.391407 	 0.376441 
H 	 -5.911444 	 1.710320 	 0.512235 
H 	 -2.661008 	 1.284720 	 2.698581 
H 	 -1.579670 	 1.725263 	 1.634392 
H 	 -4.971979 	 -4.366758 	 0.528403 
H 	 -4.648465 	 -3.721955 	 1.960636 
H 	 -1.281361 	 -1.015906 	 2.305203 
H 	 -1.126124 	 -2.556909 	 2.060207 
H 	 5.255120 	 4.888002 	 0.203338 
H 	 3.774948 	 5.279865 	 -0.402537 
H 	 6.726933 	 -5.636238 	 -3.069487 
H 	 6.536879 	 -5.957089 	 -1.572392 
H 	 -0.874365 	 4.387950 	 -4.447050 
H 	 -1.393134 	 4.469815 	 -2.973600 
H 	 -1.407022 	 -6.830131 	 7.379460 
H 	 -2.583933 	 -5.947422 	 7.135445 
H 	 -3.799222 	 -3.556826 	 5.873821 
H 	 -4.649742 	 -4.297394 	 6.885695 
H 	 -1.270927 	 -4.769002 	 1.304742 
H 	 -2.681008 	 -4.380364 	 0.887445 
H 	 4.937124 	 -3.113069 	 3.637514 
H 	 4.858020 	 -2.713738 	 5.146230 
H 	 5.110442 	 2.499953 	 1.420148 
H 	 4.831426 	 2.976519 	 2.864576 
H 	 1.462883 	 -6.172533 	 6.616847 
H 	 2.320636 	 -7.309982 	 5.877581 
H 	 4.745784 	 1.833503 	 -6.144445 
H 	 4.003713 	 3.266971 	 -6.138509 
H 	 3.330955 	 7.313637 	 2.900967 
H 	 3.032459 	 6.377417 	 1.799373 
H 	 5.897102 	 -0.817790 	 4.554179 
H 	 6.191681 	 -0.014827 	 5.769397 
H 	 6.584336 	 4.378231 	 -2.376809 
H 	 5.100156 	 4.750682 	 -2.547011 
H 	 1.781687 	 4.104973 	 -0.711242 
H 	 1.176782 	 5.415999 	 -0.516416 
H 	 7.320989 	 3.922691 	 1.613945 
H 	 -7.206554 	 3.966966 	 0.094054 
H 	 -2.274460 	 5.030241 	 2.324570 
H 	 -0.780699 	 4.539176 	 2.441327 
H 	 -2.046967 	 1.719866 	 -5.855308 
H 	 -1.942160 	 1.356279 	 7.541776 
H 	 2.159542 	 0.360560 	 5.842744 
H 	 1.443657 	 -0.964266 	 5.727827 
H 	 -3.236942 	 -3.147634 	 3.624350 
H 	 -1.963238 	 -3.174425 	 4.690734 
H 	 1.656727 	 2.552000 	 -5.088084 
H 	 2.359477 	 1.200844 	 -4.885480 
H 	 -7.315792 	 -1.946063 	 -4.587751 
H 	 -6.674468 	 -2.861553 	 -3.551598 
H 	 4.440691 	 -6.440032 	 5.645452 
H 	 3.923172 	 -6.045086 	 4.263632 
H 	 -2.108916 	 -0.813654 	 7.191120 
H 	 -2.971632 	 -0.307152 	 6.040767 
H 	 -0.116389 	 6.277191 	 1.233082 
H 	 -1.204328 	 7.044984 	 0.560991 
H 	 6.412072 	 -4.342022 	 5.144036 
H 	 -7.151841 	 -4.989723 	 4.410727 
H 	 -5.977750 	 -2.559929 	 6.084960 
H 	 -7.189484 	 -2.656332 	 5.052608 
H 	 -2.258491 	 3.019885 	 0.118783 
H 	 -3.542501 	 2.513438 	 -1.398760 
H 	 7.381153 	 -0.110243 	 -0.272227 
H 	 7.216869 	 0.969506 	 -1.220045 
H 	 -5.170418 	 -7.362384 	 -2.494744 
H 	 -6.628117 	 7.431007 	 -1.942202 
H 	 0.620756 	 -3.371715 	 4.561560 
H 	 -0.053554 	 -2.058520 	 4.339707 
H 	 1.865183 	 1.776180 	 0.618032 
H 	 3.146831 	 2.545477 	 1.177578 
H 	 0.227085 	 -1.328869 	 -0.078531 
H 	 -0.822144 	 -2.334705 	 0.185122 
H 	 -1.597567 	 3.434755 	 5.396388 
H 	 -1.919350 	 4.584210 	 4.371597 
H 	 2.548810 	 -4.078320 	 -6.930276 
H 	 1.303042 	 -4.860303 	 -6.358310 
H 	 5.577937 	 6.293509 	 2.439820 
H 	 7.060702 	 5.911401 	 2.748947 
H 	 0.567188 	 -5.885568 	 2.377091 
H 	 0.776503 	 -4.821082 	 1.228832 
H 	 0.080070 	 6.619809 	 3.612669 
H 	 0.677027 	 -7.119816 	 4.456940 
H 	 -0.776230 	 1.575825 	 3.902156 
H 	 -1.289114 	 0.896861 	 5.207557 
H 	 -3.826657 	 -2.396967 	 -3.488040 
H 	 -3.225004 	 -3.720550 	 -3.976154 
H 	 0.107133 	 0.305897 	 -5.059064 
H 	 -0.805370 	 -0.437285 	 -3.969208 
H 	 3.883401 	 -4.820310 	 2.211145 
H 	 2.585693 	 -4.381085 	 2.751453 
H 	 -4.415192 	 -1.553744 	 3.557118 
H 	 -4.001711 	 -1.554121 	 2.042785 
H 	 -5.331430 	 -5.251033 	 2.926774 
H 	 -5.137765 	 -6.498894 	 3.854449 
H 	 -4.240381 	 1.258223 	 -3.820957 
H 	 -2.808412 	 1.266100 	 -3.077558 
H 	 -2.410662 	 -5.413872 	 -3.055945 
H 	 -3.055059 	 -6.257454 	 -4.084518 
H 	 7.130147 	 1.234750 	 -3.897632 
H 	 5.953390 	 2.178539 	 -3.822068 
H 	 5.920926 	 -4.995112 	 2.951236 
H 	 6.891205 	 -6.096123 	 2.451501 
H 	 -4.423689 	 4.668106 	 0.512800 
H 	 -3.871612 	 6.165637 	 0.825514 
H 	 -6.068359 	 -4.720874 	 -1.539192 
H 	 -5.377768 	 -3.388680 	 -1.193029 
H 	 3.543381 	 -2.064030 	 6.648284 
H 	 4.945120 	 -2.261715 	 7.424358 
H 	 -5.720098 	 3.126543 	 6.245440 
H 	 -7.043817 	 2.761853 	 7.015515 
H 	 0.136598 	 6.400824 	 -6.249224 
H 	 -0.098451 	 6.771485 	 -4.781782 
H 	 -5.241577 	 3.832674 	 -5.021975 
H 	 -6.252975 	 4.074620 	 -3.870274 
H 	 -5.053089 	 6.522941 	 -5.068036 
H 	 -6.344287 	 6.168170 	 -5.706186 
H 	 1.331736 	 1.792705 	 -1.927923 
H 	 0.403969 	 2.879749 	 -2.536434 
H 	 2.009604 	 4.119383 	 1.826470 
H 	 1.745065 	 4.865446 	 3.197970 
H 	 5.956072 	 -2.216838 	 -2.892147 
H 	 5.370899 	 -3.441927 	 -1.938752 
H 	 -2.580132 	 6.318127 	 -3.107023 
H 	 -2.790748 	 5.544304 	 -4.528282 
H 	 -4.363931 	 0.370710 	 0.868056 
H 	 -3.116499 	 -0.302187 	 0.234303 
H 	 4.521437 	 1.657189 	 5.224779 
H 	 3.510031 	 2.312114 	 6.229489 
H 	 -5.925918 	 0.598854 	 -4.913223 
H 	 -5.955784 	 -0.227866 	 -3.630504 
H 	 -5.219310 	 -6.689637 	 6.767920 
H 	 -4.665289 	 -6.597015 	 -6.793497 
H 	 6.195891 	 3.397764 	 -6.762240 
H 	 -7.383452 	 3.826527 	 -6.216752 
H 	 4.116094 	 0.994494 	 -1.717043 
H 	 3.269098 	 -0.163863 	 -2.434449 
H 	 -0.452518 	 -4.054195 	 -5.874127 
H 	 -0.592211 	 -5.673683 	 -5.815844 
H 	 2.472201 	 -0.296319 	 0.835256 
H 	 2.280634 	 -0.117909 	 -0.660673 
H 	 2.944620 	 -3.297834 	 -0.506323 
H 	 2.888643 	 -4.761213 	 0.087992 
H 	 4.134020 	 0.344107 	 2.621259 
H 	 3.287056 	 -0.402453 	 3.586607 
H 	 -1.595777 	 5.308699 	 -0.800874 
H 	 -2.921717 	 4.677733 	 -1.305306 
H 	 1.177934 	 -2.352957 	 -1.916654 
H 	 2.298244 	 -2.511019 	 -2.931337 
H 	 1.596224 	 4.636356 	 -6.385642 
H 	 2.340646 	 4.906796 	 -5.000410 
H 	 -5.013801 	 6.016226 	 5.600107 
H 	 -6.392258 	 6.767797 	 5.802426 
H 	 5.822043 	 -1.546321 	 0.552918 
H 	 5.461892 	 -1.514190 	 -0.941365 
H 	 2.578035 	 5.650938 	 -2.564875 
H 	 3.298346 	 6.587791 	 -3.434334 
H 	 -0.239490 	 -4.243106 	 -3.135043 
H 	 -1.013076 	 -3.783347 	 -1.695791 
H 	 2.802079 	 -2.837641 	 -5.241441 
H 	 1.688500 	 -1.929433 	 -5.881842 
H 	 -0.644888 	 0.838255 	 -2.035876 
H 	 -1.261426 	 -0.548568 	 -1.729956 
H 	 -5.577022 	 -0.485851 	 5.403311 
H 	 -4.819986 	 0.738437 	 4.686998 
H 	 -3.901826 	 -2.184906 	 -7.049363 
H 	 -3.430936 	 -1.748357 	 -5.617074 
H 	 -4.405141 	 4.876138 	 -7.063523 
H 	 -3.328968 	 4.560191 	 6.688711 
H 	 -4.901891 	 -5.137303 	 -4.093510 
H 	 -5.111406 	 -5.026624 	 -5.543218 
H 	 -3.259009 	 3.249719 	 -4.669858 
H 	 -2.709573 	 3.586827 	 -6.031086 
H 	 -5.897638 	 -1.034479 	 -1.781329 
H 	 -4.782494 	 -1.085263 	 -0.716042 
H 	 -0.800093 	 2.484915 	 0.012132 
H 	 -4.562037 	 2.289123 	 2.724920 
H 	 7.136344 	 -5.316551 	 -5.404643 
H 	 6.375970 	 -6.610359 	 -5.066418 
H 	 3.223528 	 -4.714144 	 -3.531961 
H 	 2.156860 	 -5.275452 	 -4.397692 
H 	 1.441660 	 1.582223 	 7.525116 
H 	 0.594011 	 1.905596 	 6.269903 
H 	 -2.848178 	 -6.553253 	 1.340547 
H 	 -3.012813 	 -6.308404 	 -0.162104 
H 	 -3.649828 	 2.927917 	 3.889582 
O 	 5.513146 	 -6.730914 	 -0.155595 
O 	 2.397579 	 4.461798 	 4.652060 
O 	 7.140419 	 7.350182 	 6.763179 
O 	 3.568976 	 -6.586862 	 -2.043715 
O 	 6.476015 	 6.421114 	 -5.230901 
O 	 4.480408 	 5.820475 	 -7.200077 
O 	 -6.060440 	 4.268761 	 -1.751846 
O 	 6.441996 	 -0.380929 	 -7.271066 
O 	 -6.200499 	 5.533572 	 2.982350 
O 	 -7.123483 	 -2.912114 	 -6.256470 
O 	 1.116828 	 -5.815513 	 -0.716604 
O 	 -5.762730 	 0.385197 	 -6.572130 
O 	 -0.187667 	 -2.412757 	 -6.490474 
O 	 4.540120 	 -0.007908 	 -5.090266 
O 	 -2.348752 	 -6.539726 	 3.517603 
O 	 4.469340 	 -6.399418 	 -7.079713 
O 	 0.385365 	 5.488206 	 7.010566 
O 	 6.983815 	 2.619056 	 3.823775 
O 	 -5.087241 	 1.825662 	 1.010854 
O 	 -1.848104 	 0.924921 	 2.285433 
O 	 -4.468227 	 -4.479466 	 1.367576 
O 	 -0.595885 	 -1.770490 	 2.291512 
O 	 4.770766 	 5.264152 	 -0.508692 
O 	 7.131445 	 -5.475921 	 -2.174754 
O 	 -0.682163 	 4.077582 	 -3.552153 
O 	 -1.628975 	 -5.873754 	 7.259646 
O 	 -4.387473 	 -3.373561 	 6.630824 
O 	 -1.756825 	 -4.182722 	 0.671854 
O 	 5.507317 	 -2.800860 	 4.355583 
O 	 4.590202 	 2.307296 	 2.208374 
O 	 1.423839 	 -7.062027 	 6.152470 
O 	 4.887077 	 2.791661 	 -6.016459 
O 	 3.677765 	 7.098467 	 2.016424 
O 	 5.818995 	 0.088964 	 4.899249 
O 	 5.903251 	 4.388323 	 -3.052109 
O 	 1.933761 	 4.983774 	 -0.941821 
O 	 6.924844 	 3.733632 	 0.696111 
O 	 -1.475822 	 5.042874 	 2.885184 
O 	 -1.630508 	 2.042688 	 -6.675514 
O 	 2.377055 	 -0.618565 	 5.691922 
O 	 -2.773572 	 -3.631660 	 4.383874 
O 	 1.539291 	 1.594301 	 -5.179068 
O 	 -7.114675 	 -2.031642 	 -3.673507 
O 	 3.995125 	 -6.831498 	 4.863528 
O 	 -2.057977 	 -0.183523 	 6.405930 
O 	 -0.368695 	 6.519154 	 0.353415 
O 	 7.248589 	 -4.810641 	 5.232931 
O 	 -6.652493 	 -2.060093 	 5.574393 
O 	 -3.723365 	 3.101467 	 -0.646225 
O 	 -6.955432 	 0.460501 	 -0.855530 
O 	 -5.908330 	 6.911106 	 -2.372338 
O 	 0.043801 	 -2.714345 	 5.085744 
O 	 2.248113 	 2.629175 	 0.703253 
O 	 -0.451153 	 -1.808741 	 -0.578660 
O 	 -1.893384 	 4.379241 	 5.382476 
O 	 1.963914 	 -4.796641 	 -7.069618 
O 	 6.099988 	 5.781990 	 3.026369 
O 	 0.535888 	 -4.923079 	 2.180312 
O 	 0.330576 	 -7.354251 	 3.581430 
O 	 -0.831571 	 1.712678 	 4.860729 
O 	 -3.117298 	 -2.760678 	 -4.054642 
O 	 -0.568599 	 -0.385309 	 -4.904609 
O 	 3.531240 	 -4.492457 	 3.051010 
O 	 -4.232044 	 -2.125310 	 2.816279 
O 	 -5.823505 	 -5.910992 	 3.420737 
O 	 -3.447426 	 1.827044 	 -3.583011 
O 	 -3.283517 	 -5.815716 	 -3.267012 
O 	 6.238337 	 1.279374 	 -3.499738 
O 	 6.263993 	 -5.423020 	 2.109140 
O 	 -4.234068 	 5.336754 	 1.218067 
O 	 -5.192118 	 -4.366935 	 -1.193071 
O 	 4.310220 	 -2.700557 	 6.759888 
O 	 -6.385721 	 2.400854 	 6.301520 
O 	 0.230614 	 7.172908 	 -5.634148 
O 	 -6.146028 	 4.149304 	 -4.866910 
O 	 -5.633521 	 6.853446 	 -5.781984 
O 	 0.469479 	 2.186168 	 -1.820460 
O 	 1.520422 	 4.919829 	 2.195290 
O 	 5.215547 	 -2.549315 	 -2.391649 
O 	 -2.632086 	 6.452793 	 -4.110669 
O 	 -4.005681 	 -0.514911 	 0.600595 
O 	 4.066806 	 2.502115 	 5.468332 
O 	 -5.934545 	 0.725669 	 -3.889992 
O 	 -4.887275 	 -5.996778 	 7.365042 
O 	 7.030147 	 3.887690 	 -7.025117 
O 	 3.242368 	 0.795196 	 -2.204802 
O 	 -0.177987 	 -4.898969 	 -5.438264 
O 	 1.762132 	 -0.181065 	 0.169112 
O 	 3.356501 	 -3.892466 	 0.183503 
O 	 3.441438 	 -0.339140 	 2.650958 
O 	 -2.244072 	 5.357422 	 -1.540197 
O 	 2.132051 	 -2.160986 	 -2.032370 
O 	 2.333454 	 4.368565 	 -5.799666 
O 	 -5.533118 	 6.857678 	 5.451223 
O 	 5.698951 	 -0.870604 	 -0.149327 
O 	 2.938076 	 5.695885 	 -3.505523 
O 	 -0.649174 	 -4.527877 	 -2.271926 
O 	 2.601432 	 -1.936856 	 -5.525017 
O 	 -1.332446 	 0.189078 	 -2.356175 
O 	 -4.732037 	 -0.173691 	 4.983120 
O 	 -3.674417 	 -1.381761 	 -6.480643 
O 	 -4.319315 	 4.671468 	 6.887015 
O 	 -5.551306 	 -4.889615 	 -4.722295 
O 	 -3.254010 	 3.995487 	 -5.331516 
O 	 -5.219403 	 -1.641028 	 -1.454879 
O 	 -1.361025 	 2.963112 	 0.660499 
O 	 6.245351 	 -5.621347 	 -5.118406 
O 	 2.597020 	 -4.437472 	 -4.216622 
O 	 1.519011 	 1.832164 	 6.556760 
O 	 -2.846865 	 -7.032714 	 0.489632 
O 	 -4.005066 	 2.098524 	 3.551207 
K 	 5.690812 	 4.879967 	 5.390988 
