333
conformation = 4
H 	 4.552915 	 -7.407843 	 -3.313687 
H 	 5.280508 	 -6.057707 	 -2.649596 
H 	 1.232320 	 4.900594 	 2.039951 
H 	 2.096821 	 3.737819 	 1.540387 
H 	 6.986802 	 -7.186452 	 4.305803 
H 	 6.685203 	 -6.495953 	 2.993672 
H 	 2.205638 	 -6.395347 	 -4.873475 
H 	 3.727852 	 -6.289427 	 -4.648524 
H 	 5.767034 	 6.024272 	 7.104141 
H 	 5.304678 	 6.431926 	 5.644706 
H 	 3.293420 	 5.679089 	 5.014202 
H 	 3.792688 	 6.977267 	 4.400548 
H 	 -5.679242 	 3.942536 	 -4.944256 
H 	 -6.310565 	 5.395152 	 -5.212588 
H 	 5.313427 	 0.034501 	 5.007825 
H 	 6.827488 	 0.116399 	 4.535487 
H 	 -5.908142 	 5.727270 	 -0.987386 
H 	 -6.346469 	 6.365097 	 0.270795 
H 	 6.849069 	 -2.117448 	 4.679384 
H 	 -6.770810 	 -2.997988 	 4.958379 
H 	 0.204919 	 -6.413195 	 -3.638240 
H 	 -0.117558 	 -5.267864 	 -4.581853 
H 	 -5.598718 	 -0.210761 	 4.968097 
H 	 -6.128190 	 1.161004 	 4.249141 
H 	 -0.819167 	 -2.069176 	 4.163660 
H 	 -1.062232 	 -1.463716 	 5.672409 
H 	 3.459300 	 -0.593486 	 6.418034 
H 	 4.473975 	 0.357583 	 7.342677 
H 	 -1.918677 	 -6.445791 	 0.449485 
H 	 -3.172410 	 -5.478337 	 0.537790 
H 	 3.065076 	 -5.902918 	 4.595862 
H 	 4.413155 	 -5.873566 	 5.323654 
H 	 0.208633 	 6.532375 	 3.280684 
H 	 -0.825156 	 5.263928 	 3.243731 
H 	 7.196223 	 2.694037 	 1.193678 
H 	 5.872244 	 2.056349 	 0.606818 
H 	 -5.019598 	 2.574565 	 -2.944200 
H 	 -6.404802 	 1.893479 	 -2.808405 
H 	 -3.154366 	 1.467879 	 -0.622060 
H 	 -2.073028 	 1.908422 	 -1.686249 
H 	 -5.465337 	 -4.183599 	 -2.792237 
H 	 -5.141823 	 -3.538797 	 -1.360005 
H 	 -1.774719 	 -0.832748 	 -1.015437 
H 	 -1.619482 	 -2.373750 	 -1.260433 
H 	 4.761762 	 5.071160 	 -3.117302 
H 	 3.281590 	 5.463024 	 -3.723178 
H 	 6.233574 	 -5.453079 	 -6.390128 
H 	 6.043521 	 -5.773930 	 -4.893032 
H 	 -1.367723 	 4.571109 	 7.132031 
H 	 -1.886492 	 4.652973 	 -6.294240 
H 	 -1.900380 	 -6.646972 	 4.058820 
H 	 -3.077291 	 -5.764263 	 3.814805 
H 	 -4.292580 	 -3.373667 	 2.553181 
H 	 -5.143100 	 -4.114235 	 3.565054 
H 	 -1.764285 	 -4.585843 	 -2.015898 
H 	 -3.174366 	 -4.197205 	 -2.433195 
H 	 4.443765 	 -2.929911 	 0.316874 
H 	 4.364662 	 -2.530579 	 1.825590 
H 	 4.617084 	 2.683112 	 -1.900492 
H 	 4.338067 	 3.159678 	 -0.456064 
H 	 0.969525 	 -5.989374 	 3.296206 
H 	 1.827278 	 -7.126824 	 2.556940 
H 	 4.252425 	 2.016662 	 5.434635 
H 	 3.510355 	 3.450130 	 5.440572 
H 	 2.837597 	 -7.402925 	 -0.419673 
H 	 2.539101 	 6.560575 	 -1.521267 
H 	 5.403744 	 -0.634631 	 1.233538 
H 	 5.698323 	 0.168332 	 2.448757 
H 	 6.090978 	 4.561390 	 -5.697449 
H 	 4.606798 	 4.933841 	 -5.867652 
H 	 1.288329 	 4.288132 	 -4.031882 
H 	 0.683424 	 5.599158 	 -3.837056 
H 	 6.827631 	 4.105849 	 -1.706695 
H 	 7.199809 	 4.150125 	 -3.226587 
H 	 -2.767819 	 5.213400 	 -0.996071 
H 	 -1.274057 	 4.722335 	 -0.879313 
H 	 -2.540326 	 1.903025 	 5.723772 
H 	 -2.435518 	 1.539438 	 4.221135 
H 	 1.666184 	 0.543719 	 2.522104 
H 	 0.950299 	 -0.781108 	 2.407186 
H 	 -3.730300 	 -2.964475 	 0.303710 
H 	 -2.456596 	 -2.991267 	 1.370094 
H 	 1.163368 	 2.735158 	 6.490996 
H 	 1.866118 	 1.384003 	 6.693601 
H 	 7.090571 	 -1.762904 	 6.991330 
H 	 -7.167826 	 -2.678394 	 -6.872238 
H 	 3.947333 	 -6.256873 	 2.324812 
H 	 3.429814 	 -5.861928 	 0.942992 
H 	 -2.602274 	 -0.630495 	 3.870479 
H 	 -3.464990 	 -0.123993 	 2.720126 
H 	 -0.609747 	 6.460350 	 -2.087559 
H 	 -1.697686 	 7.228143 	 -2.759650 
H 	 5.918713 	 -4.158863 	 1.823396 
H 	 7.254522 	 -4.806564 	 1.090087 
H 	 -6.471108 	 -2.376771 	 2.764319 
H 	 7.216879 	 -2.473173 	 1.731968 
H 	 -2.751849 	 3.203044 	 -3.201857 
H 	 -4.035860 	 2.696596 	 -4.719401 
H 	 6.887795 	 0.072916 	 -3.592867 
H 	 6.723511 	 1.152665 	 -4.540685 
H 	 -5.663777 	 -7.179225 	 -5.815384 
H 	 -7.121475 	 -7.285555 	 -5.262842 
H 	 0.127398 	 -3.188557 	 1.240920 
H 	 -0.546912 	 -1.875361 	 1.019067 
H 	 1.371825 	 1.959339 	 -2.702608 
H 	 2.653473 	 2.728636 	 -2.143062 
H 	 -0.266273 	 -1.145710 	 -3.399171 
H 	 -1.315502 	 -2.151546 	 -3.135518 
H 	 -2.090926 	 3.617914 	 2.075748 
H 	 -2.412708 	 4.767369 	 1.050957 
H 	 2.055452 	 -3.895161 	 4.648805 
H 	 0.809684 	 -4.677144 	 5.220770 
H 	 5.084579 	 6.476667 	 -0.880821 
H 	 6.567344 	 6.094559 	 -0.571693 
H 	 0.073830 	 -5.702409 	 -0.943550 
H 	 0.283145 	 -4.637923 	 -2.091809 
H 	 -0.413288 	 6.802968 	 0.292028 
H 	 0.183668 	 -6.936657 	 1.136300 
H 	 -1.269588 	 1.758984 	 0.581515 
H 	 -1.782472 	 1.080020 	 1.886917 
H 	 -4.320015 	 -2.213809 	 -6.808680 
H 	 -3.718362 	 -3.537391 	 -7.296794 
H 	 -0.386225 	 0.489055 	 6.520017 
H 	 -1.298728 	 -0.254126 	 -7.289848 
H 	 3.390043 	 -4.637151 	 -1.109496 
H 	 2.092335 	 -4.197926 	 -0.569188 
H 	 -4.908550 	 -1.370586 	 0.236478 
H 	 -4.495069 	 -1.370963 	 -1.277856 
H 	 -5.824788 	 -5.067874 	 -0.393867 
H 	 -5.631123 	 -6.315735 	 0.533808 
H 	 -4.733739 	 1.441381 	 -7.141598 
H 	 -3.301771 	 1.449259 	 -6.398198 
H 	 -2.904020 	 -5.230713 	 -6.376585 
H 	 -3.548417 	 -6.074295 	 -7.405158 
H 	 6.636788 	 1.417908 	 -7.218273 
H 	 5.460031 	 2.361698 	 -7.142708 
H 	 5.427568 	 -4.811953 	 -0.369405 
H 	 6.397846 	 -5.912964 	 -0.869140 
H 	 -4.917048 	 4.851265 	 -2.807840 
H 	 -4.364970 	 6.348796 	 -2.495126 
H 	 -6.561717 	 -4.537715 	 -4.859832 
H 	 -5.871126 	 -3.205522 	 -4.513669 
H 	 3.050022 	 -1.880871 	 3.327643 
H 	 4.451762 	 -2.078556 	 4.103717 
H 	 -6.213456 	 3.309702 	 2.924799 
H 	 7.362545 	 2.945012 	 3.694874 
H 	 -0.356761 	 6.583983 	 5.329856 
H 	 -0.591809 	 6.954643 	 6.797298 
H 	 -5.734935 	 4.015833 	 6.557105 
H 	 -6.746333 	 4.257779 	 -7.190914 
H 	 -5.546448 	 6.706100 	 6.511045 
H 	 -6.837645 	 6.351329 	 5.872895 
H 	 0.838378 	 1.975864 	 -5.248564 
H 	 -0.089389 	 3.062908 	 -5.857074 
H 	 1.516246 	 4.302541 	 -1.494171 
H 	 1.251707 	 5.048605 	 -0.122671 
H 	 5.462714 	 -2.033680 	 -6.212788 
H 	 4.877540 	 -3.258768 	 -5.259392 
H 	 -3.073490 	 6.501286 	 -6.427663 
H 	 -3.284106 	 5.727463 	 7.050798 
H 	 -4.857289 	 0.553869 	 -2.452584 
H 	 -3.609857 	 -0.119029 	 -3.086337 
H 	 4.028079 	 1.840348 	 1.904138 
H 	 3.016673 	 2.495273 	 2.908849 
H 	 -6.419276 	 0.782013 	 6.665858 
H 	 -6.449142 	 -0.044707 	 -6.951145 
H 	 -5.712668 	 -6.506478 	 3.447280 
H 	 -5.158648 	 -6.413856 	 4.785584 
H 	 5.702533 	 3.580923 	 4.816841 
H 	 7.022911 	 4.009686 	 5.362329 
H 	 3.622736 	 1.177653 	 -5.037684 
H 	 2.775740 	 0.019296 	 -5.755089 
H 	 -0.945876 	 -3.871036 	 5.704954 
H 	 -1.085569 	 -5.490524 	 5.763236 
H 	 1.978842 	 -0.113161 	 -2.485385 
H 	 1.787276 	 0.065250 	 -3.981314 
H 	 2.451262 	 -3.114676 	 -3.826964 
H 	 2.395284 	 -4.578054 	 -3.232648 
H 	 3.640662 	 0.527266 	 -0.699381 
H 	 2.793698 	 -0.219294 	 0.265966 
H 	 -2.089135 	 5.491858 	 -4.121515 
H 	 -3.415076 	 4.860892 	 -4.625946 
H 	 0.684576 	 -2.169798 	 -5.237295 
H 	 1.804886 	 -2.327861 	 -6.251977 
H 	 1.102866 	 4.819514 	 5.193439 
H 	 1.847288 	 5.089954 	 6.578670 
H 	 -5.507159 	 6.199385 	 2.279467 
H 	 -6.885616 	 6.950955 	 2.481785 
H 	 5.328684 	 -1.363163 	 -2.767722 
H 	 4.968533 	 -1.331031 	 -4.262005 
H 	 2.084676 	 5.834097 	 -5.885515 
H 	 2.804987 	 6.770950 	 -6.754974 
H 	 -0.732848 	 -4.059947 	 -6.455683 
H 	 -1.506435 	 -3.600188 	 -5.016431 
H 	 2.308721 	 -2.654483 	 6.337639 
H 	 1.195142 	 -1.746274 	 5.697239 
H 	 -1.138246 	 1.021414 	 -5.356516 
H 	 -1.754784 	 -0.365409 	 -5.050596 
H 	 -6.070381 	 -0.302692 	 2.082671 
H 	 -5.313344 	 0.921596 	 1.366358 
H 	 -4.395184 	 -2.001747 	 4.529717 
H 	 -3.924295 	 -1.565198 	 5.962006 
H 	 -4.898499 	 5.059297 	 4.515558 
H 	 -3.822326 	 4.743349 	 3.368070 
H 	 -5.395249 	 -4.954144 	 -7.414150 
H 	 -5.604764 	 -4.843465 	 6.035863 
H 	 -3.752368 	 3.432878 	 6.909223 
H 	 -3.202931 	 3.769986 	 5.547995 
H 	 -6.390997 	 -0.851320 	 -5.101970 
H 	 -5.275852 	 -0.902104 	 -4.036682 
H 	 -1.293452 	 2.668073 	 -3.308508 
H 	 -5.055395 	 2.472282 	 -0.595721 
H 	 6.642986 	 -5.133393 	 6.174438 
H 	 5.882611 	 -6.427200 	 6.512663 
H 	 2.730170 	 -4.530985 	 -6.852602 
H 	 1.663502 	 -5.092293 	 7.181389 
H 	 0.948302 	 1.765381 	 4.204476 
H 	 0.100653 	 2.088755 	 2.949263 
H 	 -3.341536 	 -6.370094 	 -1.980093 
H 	 -3.506171 	 -6.125245 	 -3.482745 
H 	 -4.143186 	 3.111076 	 0.568941 
O 	 5.019788 	 -6.547756 	 -3.476235 
O 	 1.904220 	 4.644956 	 1.331419 
O 	 6.647061 	 -7.366380 	 3.442539 
O 	 3.075618 	 -6.403703 	 -5.364355 
O 	 5.982657 	 6.604273 	 6.348179 
O 	 3.987049 	 6.003633 	 4.379003 
O 	 -6.553798 	 4.451920 	 -5.072486 
O 	 5.948637 	 -0.197770 	 4.308015 
O 	 -6.693858 	 5.716731 	 -0.338290 
O 	 7.282880 	 -2.728956 	 5.322611 
O 	 0.623470 	 -5.632354 	 -4.037244 
O 	 -6.256088 	 0.568356 	 5.006951 
O 	 -0.681025 	 -2.229598 	 5.088607 
O 	 4.046762 	 0.175251 	 6.488815 
O 	 -2.842110 	 -6.356568 	 0.196963 
O 	 3.975982 	 -6.216259 	 4.499368 
O 	 -0.107993 	 5.671364 	 3.689926 
O 	 6.490457 	 2.802215 	 0.503134 
O 	 -5.580599 	 2.008821 	 -2.309786 
O 	 -2.341462 	 1.108080 	 -1.035208 
O 	 -4.961585 	 -4.296308 	 -1.953064 
O 	 -1.089244 	 -1.587332 	 -1.029128 
O 	 4.277408 	 5.447311 	 -3.829332 
O 	 6.638087 	 -5.292762 	 -5.495394 
O 	 -1.175521 	 4.260741 	 -6.872793 
O 	 -2.122333 	 -5.690596 	 3.939006 
O 	 -4.880831 	 -3.190402 	 3.310183 
O 	 -2.250183 	 -3.999563 	 -2.648786 
O 	 5.013959 	 -2.617701 	 1.034943 
O 	 4.096844 	 2.490455 	 -1.112266 
O 	 0.930481 	 -6.878869 	 2.831830 
O 	 4.393719 	 2.974820 	 5.562622 
O 	 3.184407 	 7.281626 	 -1.304217 
O 	 5.325637 	 0.272122 	 1.578608 
O 	 5.409893 	 4.571481 	 -6.372750 
O 	 1.440403 	 5.166932 	 -4.262461 
O 	 6.431486 	 3.916791 	 -2.624529 
O 	 -1.969180 	 5.226033 	 -0.435456 
O 	 -2.123866 	 2.225847 	 4.903567 
O 	 1.883696 	 -0.435406 	 2.371281 
O 	 -3.266930 	 -3.448501 	 1.063234 
O 	 1.045933 	 1.777459 	 6.400013 
O 	 7.291688 	 -1.848483 	 -6.994148 
O 	 3.501767 	 -6.648340 	 1.542887 
O 	 -2.551335 	 -0.000364 	 3.085289 
O 	 -0.862053 	 6.702313 	 -2.967225 
O 	 6.755231 	 -4.627482 	 1.912291 
O 	 -7.145851 	 -1.876934 	 2.253752 
O 	 -4.216723 	 3.284626 	 -3.966866 
O 	 7.450931 	 0.643660 	 -4.176171 
O 	 -6.401688 	 7.094264 	 -5.692979 
O 	 -0.449557 	 -2.531186 	 1.765103 
O 	 1.754755 	 2.812334 	 -2.617387 
O 	 -0.944511 	 -1.625582 	 -3.899300 
O 	 -2.386742 	 4.562400 	 2.061836 
O 	 1.470556 	 -4.613482 	 4.509462 
O 	 5.606630 	 5.965148 	 -0.294271 
O 	 0.042530 	 -4.739920 	 -1.140329 
O 	 -0.162783 	 -7.171092 	 0.260789 
O 	 -1.324929 	 1.895837 	 1.540089 
O 	 -3.610656 	 -2.577519 	 -7.375283 
O 	 -1.061957 	 -0.202150 	 6.674471 
O 	 3.037882 	 -4.309298 	 -0.269630 
O 	 -4.725402 	 -1.942151 	 -0.504362 
O 	 -6.316863 	 -5.727833 	 0.100096 
O 	 -3.940784 	 2.010203 	 -6.903652 
O 	 -3.776876 	 -5.632558 	 -6.587653 
O 	 5.744979 	 1.462533 	 -6.820379 
O 	 5.770635 	 -5.239861 	 -1.211501 
O 	 -4.727426 	 5.519913 	 -2.102573 
O 	 -5.685476 	 -4.183776 	 -4.513711 
O 	 3.816862 	 -2.517398 	 3.439247 
O 	 -6.879079 	 2.584013 	 2.980880 
O 	 -0.262744 	 7.356067 	 5.944933 
O 	 -6.639386 	 4.332463 	 6.712171 
O 	 -6.126879 	 7.036605 	 5.797096 
O 	 -0.023879 	 2.369327 	 -5.141100 
O 	 1.027064 	 5.102988 	 -1.125350 
O 	 4.722189 	 -2.366156 	 -5.712290 
O 	 -3.125444 	 6.635952 	 -7.431309 
O 	 -4.499039 	 -0.331752 	 -2.720045 
O 	 3.573448 	 2.685274 	 2.147691 
O 	 -6.427903 	 0.908828 	 -7.210632 
O 	 -5.380633 	 -5.813619 	 4.044402 
O 	 6.536788 	 4.070849 	 4.553964 
O 	 2.749010 	 0.978355 	 -5.525442 
O 	 -0.671345 	 -4.715810 	 6.140817 
O 	 1.268774 	 0.002094 	 -3.151528 
O 	 2.863143 	 -3.709307 	 -3.137137 
O 	 2.948080 	 -0.155981 	 -0.669682 
O 	 -2.737430 	 5.540581 	 -4.860837 
O 	 1.638693 	 -1.977828 	 -5.353011 
O 	 1.840096 	 4.551723 	 5.779414 
O 	 -6.026476 	 7.040837 	 2.130582 
O 	 5.205593 	 -0.687446 	 -3.469968 
O 	 2.444718 	 5.879044 	 -6.826163 
O 	 -1.142532 	 -4.344718 	 -5.592566 
O 	 2.108074 	 -1.753698 	 6.054063 
O 	 -1.825804 	 0.372237 	 -5.676815 
O 	 -5.225395 	 0.009467 	 1.662480 
O 	 -4.167776 	 -1.198603 	 5.098438 
O 	 -4.812673 	 4.854626 	 3.566375 
O 	 -6.044664 	 -4.706456 	 6.856786 
O 	 -3.747368 	 4.178645 	 6.247564 
O 	 -5.712761 	 -1.457869 	 -4.775519 
O 	 -1.854383 	 3.146271 	 -2.660141 
O 	 5.751992 	 -5.438188 	 6.460675 
O 	 2.103662 	 -4.254313 	 7.362459 
O 	 1.025653 	 2.015323 	 3.236120 
O 	 -3.340223 	 -6.849556 	 -2.831009 
O 	 -4.498424 	 2.281683 	 0.230566 
K 	 5.197454 	 5.063126 	 2.070348 
