333
conformation = 55
H 	 4.892436 	 -7.488290 	 -3.494019 
H 	 5.063589 	 -6.189710 	 -2.559176 
H 	 1.389162 	 4.451409 	 2.197808 
H 	 2.530828 	 3.851444 	 1.357442 
H 	 6.598104 	 7.341521 	 4.015315 
H 	 6.631984 	 -6.360324 	 2.910471 
H 	 2.091029 	 -6.370443 	 -5.050506 
H 	 3.567014 	 -6.701579 	 -4.844100 
H 	 5.748616 	 6.109314 	 7.214907 
H 	 5.258374 	 6.298200 	 5.723894 
H 	 3.237239 	 5.527783 	 4.761582 
H 	 3.834916 	 7.002907 	 4.398466 
H 	 -5.778560 	 3.901449 	 -4.645228 
H 	 -6.646468 	 5.166526 	 -5.104431 
H 	 5.451308 	 0.065681 	 5.076509 
H 	 6.906457 	 -0.121311 	 4.621258 
H 	 -6.037126 	 5.555284 	 -0.969590 
H 	 -6.332332 	 5.975925 	 0.520549 
H 	 6.855668 	 -1.840295 	 4.694926 
H 	 -6.859671 	 -2.728339 	 4.774684 
H 	 0.065831 	 -6.785110 	 -3.770604 
H 	 -0.031581 	 -5.416857 	 -4.669218 
H 	 -5.447167 	 -0.028978 	 4.733469 
H 	 -6.241840 	 1.234545 	 4.243728 
H 	 -0.875891 	 -2.193517 	 4.111473 
H 	 -0.996721 	 -1.539523 	 5.534817 
H 	 3.556336 	 -0.444411 	 6.597787 
H 	 4.650922 	 0.591400 	 7.129085 
H 	 -2.063316 	 -6.500030 	 0.101512 
H 	 -3.044749 	 -5.299545 	 0.138172 
H 	 3.089162 	 -5.727291 	 4.936668 
H 	 4.633048 	 -5.768105 	 5.073288 
H 	 0.376320 	 6.310735 	 3.320188 
H 	 -0.964796 	 5.411238 	 3.261841 
H 	 7.353621 	 3.096063 	 0.897630 
H 	 6.527822 	 1.920367 	 0.609095 
H 	 -5.051694 	 2.507242 	 -2.779096 
H 	 -6.459939 	 1.862710 	 -2.486506 
H 	 -2.910957 	 1.504453 	 -0.608157 
H 	 -1.757834 	 1.682655 	 -1.620870 
H 	 -5.494707 	 -4.437728 	 -2.673853 
H 	 -5.577268 	 -3.754314 	 -1.227241 
H 	 -1.452226 	 -0.728175 	 -0.870793 
H 	 -1.759965 	 -2.201363 	 -1.153662 
H 	 4.721286 	 4.653969 	 -3.232438 
H 	 3.412624 	 5.330374 	 -3.679336 
H 	 6.156925 	 -5.141757 	 -6.091703 
H 	 6.056705 	 -5.770620 	 -4.613163 
H 	 -1.653544 	 3.772432 	 7.111168 
H 	 -1.563553 	 4.563841 	 -6.426433 
H 	 -2.294082 	 -6.666684 	 4.471768 
H 	 -3.196688 	 -5.631244 	 3.693635 
H 	 -4.122545 	 -3.229812 	 2.599089 
H 	 -5.120352 	 -4.029540 	 3.632087 
H 	 -1.665107 	 -4.565173 	 -2.077605 
H 	 -3.247821 	 -4.269469 	 -2.176022 
H 	 4.115206 	 -3.100314 	 0.492383 
H 	 4.553710 	 -2.869022 	 1.940169 
H 	 4.874745 	 2.389492 	 -1.876483 
H 	 4.324685 	 3.068689 	 -0.698080 
H 	 1.027712 	 -6.142664 	 3.413290 
H 	 2.023053 	 -6.878365 	 2.432807 
H 	 4.065850 	 2.093050 	 5.943448 
H 	 3.674434 	 3.597803 	 5.846770 
H 	 3.044341 	 7.109108 	 -0.352827 
H 	 2.198644 	 6.363956 	 -1.412326 
H 	 4.781369 	 -0.635989 	 1.061264 
H 	 5.485471 	 -0.221732 	 2.381830 
H 	 6.493965 	 4.368661 	 -6.084555 
H 	 5.109780 	 5.068593 	 -5.717487 
H 	 1.544681 	 4.310665 	 -3.661198 
H 	 0.720331 	 5.748109 	 -3.835604 
H 	 7.005144 	 3.691954 	 -1.906973 
H 	 6.991385 	 3.971632 	 -3.471563 
H 	 -2.701257 	 5.628945 	 -0.814791 
H 	 -1.697290 	 4.539921 	 -1.206018 
H 	 -1.714886 	 1.510769 	 5.426909 
H 	 -2.446687 	 1.918448 	 4.057681 
H 	 1.352532 	 -0.101278 	 3.014843 
H 	 1.067496 	 -1.422880 	 2.244327 
H 	 -3.322075 	 -2.988509 	 0.521535 
H 	 -2.184416 	 -3.201007 	 1.523015 
H 	 1.289723 	 2.441252 	 6.288890 
H 	 2.056415 	 1.092703 	 6.558061 
H 	 7.201788 	 -2.677736 	 7.060344 
H 	 -7.064254 	 -2.787959 	 -6.447168 
H 	 3.970308 	 -6.400469 	 2.558512 
H 	 3.717128 	 -5.687821 	 1.217049 
H 	 -3.058461 	 -0.382507 	 3.753255 
H 	 -3.570213 	 -0.013306 	 2.321483 
H 	 -0.606812 	 5.997957 	 -2.329611 
H 	 -1.643474 	 7.131348 	 -2.815980 
H 	 6.282487 	 -4.278139 	 1.274853 
H 	 7.596611 	 -4.951523 	 1.682910 
H 	 -6.495094 	 -2.637781 	 2.529293 
H 	 7.080841 	 -2.154584 	 1.844580 
H 	 -2.711000 	 3.075935 	 -3.315704 
H 	 -4.222983 	 2.735273 	 -4.778687 
H 	 6.588827 	 0.528528 	 -3.750552 
H 	 7.461605 	 1.289486 	 -4.798410 
H 	 -5.664406 	 -7.207446 	 -5.784889 
H 	 -7.167082 	 -6.994436 	 -5.880877 
H 	 0.270277 	 -3.252808 	 1.782369 
H 	 -0.272585 	 -2.352628 	 0.699190 
H 	 1.431696 	 1.648461 	 -2.801711 
H 	 2.479150 	 2.674239 	 -2.258643 
H 	 -0.092970 	 -1.219891 	 -3.345680 
H 	 -1.140917 	 -2.446643 	 -3.388814 
H 	 -1.735263 	 3.601173 	 2.021180 
H 	 -2.225965 	 4.798301 	 1.298264 
H 	 1.756706 	 -3.896612 	 4.106942 
H 	 0.880084 	 -4.775326 	 5.133761 
H 	 4.881556 	 6.544324 	 -0.845012 
H 	 6.409282 	 6.030731 	 -0.537189 
H 	 0.004158 	 -5.634932 	 -0.621799 
H 	 0.308502 	 -4.937576 	 -1.987944 
H 	 -0.004484 	 6.792182 	 -0.056739 
H 	 0.173414 	 -7.067993 	 1.146911 
H 	 -1.367326 	 1.550813 	 0.654071 
H 	 -1.644271 	 1.312644 	 2.184334 
H 	 -4.046472 	 -2.057602 	 -6.506108 
H 	 -4.235633 	 -3.209645 	 -7.319522 
H 	 -0.270059 	 0.320507 	 6.652730 
H 	 -1.330873 	 -0.296370 	 -7.285064 
H 	 2.938169 	 -4.115680 	 -1.048816 
H 	 1.995082 	 -4.323755 	 0.042578 
H 	 -5.142644 	 -1.294738 	 0.335363 
H 	 -4.840436 	 -1.309372 	 -1.289067 
H 	 -5.732280 	 -5.692450 	 -0.416049 
H 	 -5.766106 	 -6.613483 	 0.842651 
H 	 -4.780311 	 1.568368 	 -6.850887 
H 	 -3.305524 	 1.115402 	 -6.508342 
H 	 -3.162118 	 -5.264136 	 -6.082620 
H 	 -3.418656 	 -6.662574 	 -6.898160 
H 	 6.567987 	 1.472395 	 -7.085394 
H 	 5.515526 	 2.643384 	 -6.937384 
H 	 5.442134 	 -4.788721 	 -0.390402 
H 	 6.676720 	 -5.664232 	 -0.736029 
H 	 -4.245386 	 4.750732 	 -2.800851 
H 	 -4.350650 	 6.235500 	 -2.730735 
H 	 -6.479704 	 -4.554911 	 -4.863170 
H 	 -5.704901 	 -3.267562 	 -4.553848 
H 	 3.148493 	 -1.805605 	 3.138760 
H 	 4.376676 	 -2.299504 	 4.055141 
H 	 -5.828686 	 2.939088 	 3.155529 
H 	 7.592587 	 2.999756 	 3.709231 
H 	 -0.461493 	 6.641517 	 5.337216 
H 	 -0.976552 	 7.124128 	 6.766958 
H 	 -5.709626 	 4.250664 	 6.457187 
H 	 -6.644670 	 4.390507 	 -7.183940 
H 	 -5.639917 	 7.013685 	 6.632069 
H 	 -7.098290 	 6.886468 	 6.059386 
H 	 0.912815 	 2.010511 	 -5.465902 
H 	 -0.285926 	 2.798669 	 -6.061513 
H 	 1.104885 	 4.352268 	 -1.553957 
H 	 1.150618 	 4.861772 	 -0.136783 
H 	 5.459312 	 -2.521985 	 -5.968787 
H 	 4.426982 	 -3.223418 	 -5.070802 
H 	 -3.123619 	 6.081527 	 -6.720732 
H 	 -3.509716 	 6.146189 	 6.683230 
H 	 -4.918084 	 0.474220 	 -2.519164 
H 	 -3.440896 	 -0.103066 	 -2.544483 
H 	 4.170955 	 1.616680 	 1.791082 
H 	 2.885262 	 2.098882 	 2.444447 
H 	 -6.382222 	 0.968312 	 6.543092 
H 	 -6.614009 	 -0.156838 	 -7.265772 
H 	 -5.236406 	 -6.306570 	 3.143964 
H 	 -6.006801 	 -6.618710 	 4.526837 
H 	 5.895646 	 3.693439 	 5.111632 
H 	 7.351548 	 4.490183 	 5.128766 
H 	 3.681909 	 1.250303 	 -5.907802 
H 	 2.665761 	 0.098179 	 -5.666863 
H 	 -0.838357 	 -3.762241 	 5.820203 
H 	 -1.150971 	 -5.251630 	 5.868555 
H 	 1.734827 	 -0.359878 	 -2.087575 
H 	 2.164119 	 0.104044 	 -3.647955 
H 	 2.390165 	 -2.747865 	 -3.730963 
H 	 2.564354 	 -4.226801 	 -3.826289 
H 	 3.159733 	 0.653105 	 -0.734222 
H 	 2.196792 	 -0.397819 	 0.054564 
H 	 -2.078786 	 5.718470 	 -4.187671 
H 	 -3.110420 	 4.525535 	 -4.565940 
H 	 0.504798 	 -1.656100 	 -5.022222 
H 	 1.563881 	 -2.516274 	 -5.723864 
H 	 1.238549 	 4.836712 	 5.336951 
H 	 2.014736 	 5.196445 	 6.623454 
H 	 -5.510086 	 6.207528 	 2.642842 
H 	 -6.689648 	 7.099016 	 2.289940 
H 	 4.963240 	 -1.386142 	 -2.702054 
H 	 5.065851 	 -1.215300 	 -4.194514 
H 	 1.969311 	 5.322211 	 -6.203695 
H 	 2.593185 	 6.803913 	 -6.444225 
H 	 -1.316090 	 -4.403731 	 -6.711689 
H 	 -1.341805 	 -3.409346 	 -5.605389 
H 	 2.216247 	 -2.583099 	 6.573000 
H 	 1.293429 	 -1.723869 	 5.680959 
H 	 -1.127455 	 0.858030 	 -5.469801 
H 	 -1.558510 	 -0.537244 	 -5.006900 
H 	 -6.150265 	 -0.500761 	 2.016760 
H 	 -5.528787 	 0.766851 	 1.284078 
H 	 -4.305766 	 -2.046981 	 4.652466 
H 	 -3.916611 	 -1.613715 	 6.104963 
H 	 -4.848649 	 5.309292 	 4.582539 
H 	 -4.022607 	 4.676551 	 3.364524 
H 	 -5.197295 	 -5.278085 	 -7.262582 
H 	 -5.762007 	 -4.742469 	 6.210565 
H 	 -3.933502 	 3.283960 	 6.998694 
H 	 -3.404794 	 3.416289 	 5.627133 
H 	 -6.361003 	 -1.103419 	 -4.711618 
H 	 -5.046030 	 -1.379260 	 -4.086485 
H 	 -1.150885 	 3.139350 	 -3.752280 
H 	 -5.085961 	 2.308588 	 -0.486154 
H 	 6.633050 	 -4.972223 	 6.393526 
H 	 6.107149 	 -6.484757 	 6.431394 
H 	 2.376215 	 -5.337022 	 -6.973849 
H 	 1.212870 	 -4.649536 	 7.125197 
H 	 0.328012 	 2.073617 	 3.898212 
H 	 0.402184 	 2.047495 	 2.367865 
H 	 -3.312764 	 -6.560958 	 -1.952634 
H 	 -3.221432 	 -6.017082 	 -3.523781 
H 	 -4.690819 	 3.247152 	 0.690969 
O 	 5.003358 	 -6.512823 	 -3.491156 
O 	 1.980543 	 4.702854 	 1.451226 
O 	 6.792073 	 -7.335757 	 3.086084 
O 	 2.906537 	 -6.536270 	 -5.557843 
O 	 5.865580 	 6.688805 	 6.414405 
O 	 3.953154 	 6.008879 	 4.365353 
O 	 -6.676134 	 4.182800 	 -5.001096 
O 	 5.968636 	 -0.357792 	 4.332658 
O 	 -6.760575 	 5.650555 	 -0.337989 
O 	 7.183289 	 -2.623251 	 5.192526 
O 	 0.511788 	 -5.931975 	 -4.025148 
O 	 -6.266399 	 0.477943 	 4.932131 
O 	 -0.547714 	 -2.263580 	 5.014285 
O 	 4.061829 	 0.396721 	 6.335840 
O 	 -3.011347 	 -6.239680 	 -0.065427 
O 	 3.884702 	 -6.137031 	 4.528254 
O 	 -0.089978 	 5.544445 	 3.782542 
O 	 6.561873 	 2.866354 	 0.405893 
O 	 -5.583273 	 1.893585 	 -2.096501 
O 	 -2.077560 	 1.075281 	 -0.941560 
O 	 -5.153022 	 -4.495051 	 -1.725101 
O 	 -1.118966 	 -1.623926 	 -0.793326 
O 	 4.379573 	 5.400463 	 -3.756190 
O 	 6.684625 	 -5.444433 	 -5.346692 
O 	 -1.037490 	 4.175318 	 -7.134511 
O 	 -2.263248 	 -5.817986 	 3.922020 
O 	 -4.863642 	 -3.170294 	 3.256530 
O 	 -2.372412 	 -4.185386 	 -2.649461 
O 	 4.927232 	 -2.866432 	 1.019743 
O 	 3.999009 	 2.520216 	 -1.421354 
O 	 1.094041 	 -6.908764 	 2.833117 
O 	 4.376780 	 2.940246 	 5.607582 
O 	 2.869361 	 7.075007 	 -1.319161 
O 	 5.215858 	 0.155555 	 1.458747 
O 	 5.604231 	 4.653539 	 -6.442674 
O 	 1.446537 	 5.175428 	 -4.227255 
O 	 6.445576 	 3.931840 	 -2.659767 
O 	 -1.781025 	 5.347843 	 -0.662280 
O 	 -2.250974 	 2.232330 	 4.937107 
O 	 1.724098 	 -0.725723 	 2.356325 
O 	 -3.022287 	 -3.643402 	 1.191339 
O 	 1.125223 	 1.492764 	 6.429061 
O 	 7.271803 	 -2.165390 	 -6.965225 
O 	 3.567818 	 -6.527508 	 1.680340 
O 	 -2.794850 	 0.047201 	 2.927044 
O 	 -0.837354 	 6.606236 	 -3.108450 
O 	 6.726676 	 -4.612859 	 2.089503 
O 	 -7.040405 	 -1.854956 	 2.300621 
O 	 -4.311650 	 3.224900 	 -3.936097 
O 	 7.517117 	 0.603379 	 -4.101886 
O 	 -6.492179 	 7.177674 	 -5.799802 
O 	 -0.381182 	 -2.562144 	 1.670973 
O 	 1.596817 	 2.662000 	 -2.649820 
O 	 -0.821495 	 -1.666351 	 -3.882879 
O 	 -2.275086 	 4.394016 	 2.174092 
O 	 1.613667 	 -4.800944 	 4.445233 
O 	 5.486577 	 6.096317 	 -0.182567 
O 	 -0.174785 	 -4.803603 	 -1.131417 
O 	 -0.183389 	 -7.163706 	 0.209718 
O 	 -1.178708 	 1.928081 	 1.576639 
O 	 -3.534270 	 -2.499878 	 -7.261721 
O 	 -1.099289 	 -0.209184 	 6.644451 
O 	 2.966922 	 -4.468195 	 -0.135538 
O 	 -4.737918 	 -1.831934 	 -0.446594 
O 	 -6.267311 	 -5.939006 	 0.388283 
O 	 -3.861274 	 1.861646 	 -6.866554 
O 	 -3.786175 	 -5.759726 	 -6.650823 
O 	 5.648820 	 1.703076 	 -6.716896 
O 	 5.838311 	 -5.342062 	 -1.102809 
O 	 -4.533929 	 5.432728 	 -2.163209 
O 	 -5.596893 	 -4.280021 	 -4.588446 
O 	 3.689741 	 -2.566590 	 3.383574 
O 	 -6.703442 	 2.473792 	 3.058404 
O 	 -0.445604 	 -7.495651 	 5.961801 
O 	 -6.660793 	 4.356122 	 6.745210 
O 	 -6.162042 	 6.910573 	 5.814704 
O 	 -0.016543 	 2.206822 	 -5.312531 
O 	 1.030936 	 5.160183 	 -1.037562 
O 	 4.514317 	 -2.403973 	 -5.632789 
O 	 -3.239092 	 6.661944 	 7.432666 
O 	 -4.365225 	 -0.312663 	 -2.755684 
O 	 3.620126 	 2.434339 	 1.850148 
O 	 -6.590958 	 0.802551 	 -7.367093 
O 	 -5.392930 	 -5.981654 	 4.080124 
O 	 6.623666 	 4.059772 	 4.540339 
O 	 2.878731 	 1.027713 	 -5.443982 
O 	 -0.547113 	 -4.598500 	 6.327840 
O 	 1.455703 	 -0.033740 	 -2.977006 
O 	 2.679669 	 -3.504682 	 -3.186995 
O 	 2.811901 	 -0.273454 	 -0.698200 
O 	 -2.706011 	 5.376520 	 -4.909109 
O 	 1.480297 	 -1.690954 	 -5.234586 
O 	 1.982047 	 4.546711 	 5.900434 
O 	 -5.748269 	 6.834763 	 1.926080 
O 	 5.235308 	 -0.779626 	 -3.377791 
O 	 2.329029 	 5.927376 	 -6.843491 
O 	 -1.336036 	 -4.369590 	 -5.747188 
O 	 2.178495 	 -1.714708 	 6.126469 
O 	 -1.775111 	 0.145530 	 -5.681965 
O 	 -5.330906 	 -0.107360 	 1.645696 
O 	 -4.003581 	 -1.277359 	 5.151654 
O 	 -4.872175 	 4.839044 	 3.732209 
O 	 -6.016136 	 -4.848391 	 7.134075 
O 	 -3.819191 	 3.980126 	 6.334848 
O 	 -5.572670 	 -1.619252 	 -4.854242 
O 	 -1.746107 	 3.160221 	 -2.958197 
O 	 5.817846 	 -5.536447 	 6.424755 
O 	 2.128972 	 -4.467493 	 -7.381191 
O 	 0.970782 	 1.963519 	 3.209048 
O 	 -3.231196 	 -6.795153 	 -2.911926 
O 	 -4.694262 	 2.292173 	 0.426497 
K 	 5.140288 	 4.955205 	 2.064269 
