333
conformation = 3
H 	 750.524164 	 229.183644 	 -44.375555 
H 	 751.261017 	 -769.466008 	 -43.702676 
H 	 -237.890109 	 226.591155 	 -39.007889 
H 	 -237.048448 	 225.418853 	 -39.500864 
H 	 -247.034334 	 -770.602478 	 -51.636002 
H 	 752.666651 	 -769.914521 	 -38.066453 
H 	 -236.917174 	 -769.801215 	 -45.938530 
H 	 749.692587 	 -769.703723 	 -45.690050 
H 	 751.743305 	 227.708400 	 -48.846554 
H 	 751.293158 	 228.118547 	 -50.309234 
H 	 749.273886 	 227.369215 	 -50.944228 
H 	 749.770482 	 228.666035 	 -51.561053 
H 	 -244.804039 	 225.632325 	 -45.998614 
H 	 -245.446066 	 227.089238 	 -46.270651 
H 	 751.293209 	 221.738735 	 -50.940334 
H 	 752.801871 	 221.788473 	 -51.411530 
H 	 -245.032476 	 227.408914 	 -42.038185 
H 	 -245.467273 	 228.036921 	 -40.779593 
H 	 752.831053 	 219.566200 	 -51.276660 
H 	 -245.899844 	 218.686889 	 -50.993079 
H 	 -238.912133 	 -769.828548 	 -44.690233 
H 	 -239.233207 	 -768.680865 	 -45.641207 
H 	 -244.724612 	 221.480558 	 -50.990104 
H 	 -245.243307 	 222.849871 	 948.300859 
H 	 -239.938460 	 219.612377 	 948.212484 
H 	 -240.187743 	 220.231200 	 -50.278106 
H 	 749.429694 	 221.085680 	 -49.534529 
H 	 750.448910 	 222.024937 	 -48.608232 
H 	 -241.044095 	 -769.857183 	 -40.593470 
H 	 -242.297641 	 -768.897597 	 -40.522306 
H 	 -236.054325 	 -769.333786 	 -51.353733 
H 	 750.393754 	 -769.288810 	 -50.635641 
H 	 -238.910205 	 228.211728 	 -37.758882 
H 	 -239.959792 	 226.949243 	 -37.807547 
H 	 -246.838139 	 224.372928 	 -39.854230 
H 	 751.850068 	 223.744070 	 -40.445246 
H 	 -244.137680 	 224.258517 	 -43.989290 
H 	 -245.520797 	 223.590565 	 -43.858244 
H 	 -242.278037 	 223.159924 	 -41.664121 
H 	 -241.200360 	 223.599523 	 -42.738523 
H 	 -244.594713 	 -767.606282 	 -43.842771 
H 	 -244.271684 	 218.150844 	 -42.413728 
H 	 -240.894798 	 220.854345 	 -42.072370 
H 	 -240.741589 	 219.326591 	 -42.307927 
H 	 750.739284 	 226.761590 	 -44.181786 
H 	 749.262710 	 227.146959 	 -44.771114 
H 	 752.213909 	 -768.850601 	 -47.440869 
H 	 752.013357 	 -769.187152 	 -45.956824 
H 	 -240.487849 	 226.261603 	 -48.817379 
H 	 -240.997861 	 226.335897 	 -47.341748 
H 	 -241.016507 	 -770.068507 	 948.099254 
H 	 -242.204831 	 -769.185420 	 947.879088 
H 	 -243.413242 	 218.315523 	 -38.504949 
H 	 -244.276387 	 217.565063 	 947.628283 
H 	 -240.874463 	 -767.996389 	 -43.071179 
H 	 -242.299170 	 -767.608377 	 -43.481536 
H 	 750.409804 	 218.759522 	 -40.732303 
H 	 750.342932 	 219.153052 	 -39.222835 
H 	 750.603272 	 224.376782 	 -42.948142 
H 	 750.319250 	 224.843411 	 -41.507396 
H 	 -238.164615 	 -769.415127 	 -37.761953 
H 	 -237.299538 	 -770.546304 	 -38.494061 
H 	 750.226103 	 223.702840 	 -50.506684 
H 	 749.479291 	 225.143948 	 -50.517253 
H 	 -236.281871 	 229.191237 	 -41.467730 
H 	 -236.582401 	 228.251774 	 -42.575586 
H 	 751.398756 	 221.054960 	 -39.810485 
H 	 751.682339 	 221.855034 	 -38.594135 
H 	 752.070617 	 226.251395 	 -46.738793 
H 	 750.571980 	 226.629238 	 -46.928105 
H 	 -237.831157 	 225.970488 	 -45.079588 
H 	 -238.441017 	 227.285349 	 -44.873507 
H 	 752.799513 	 225.802599 	 -42.760800 
H 	 -246.820971 	 225.826398 	 -44.278479 
H 	 -241.892735 	 226.896067 	 -42.042129 
H 	 -240.396031 	 226.418455 	 -41.923665 
H 	 -241.662383 	 223.580199 	 -50.209922 
H 	 -241.549862 	 223.226692 	 948.268072 
H 	 -237.465804 	 222.234087 	 -38.518016 
H 	 -238.162359 	 220.896082 	 -38.642537 
H 	 -242.853140 	 218.713144 	 -40.741351 
H 	 -241.583942 	 218.712715 	 -39.683020 
H 	 -237.967501 	 224.415006 	 -49.467387 
H 	 -237.246518 	 223.072401 	 -49.256586 
H 	 -246.943283 	 219.920349 	 -48.959028 
H 	 -246.288084 	 219.013516 	 -47.925769 
H 	 749.921112 	 -769.681098 	 -38.729037 
H 	 749.403736 	 -769.271678 	 -40.096927 
H 	 -241.721932 	 221.049017 	 947.924804 
H 	 -242.580729 	 221.565590 	 -38.335083 
H 	 -239.733958 	 228.137533 	 -43.131387 
H 	 -240.812838 	 228.912015 	 -43.794861 
H 	 751.890813 	 217.529667 	 -39.237723 
H 	 -246.756502 	 -768.228688 	 -39.968323 
H 	 -245.595544 	 219.312863 	 -38.277283 
H 	 -246.801486 	 219.217389 	 -39.323875 
H 	 -241.880927 	 224.891965 	 -44.247615 
H 	 -243.161472 	 224.377433 	 -45.765113 
H 	 752.860848 	 221.760409 	 -44.622002 
H 	 752.693429 	 222.843621 	 -45.591295 
H 	 -244.786046 	 -770.595057 	 -46.864202 
H 	 -246.241000 	 229.301833 	 -46.302122 
H 	 -239.000472 	 218.516752 	 -39.811883 
H 	 -239.657179 	 219.810855 	 -40.037434 
H 	 -237.743916 	 223.643578 	 -43.751018 
H 	 -236.473267 	 224.427644 	 -43.199091 
H 	 -239.383545 	 220.548220 	 -44.442391 
H 	 -240.434557 	 219.534236 	 -44.180866 
H 	 -241.207717 	 225.304223 	 -38.967902 
H 	 -241.545077 	 226.446593 	 -40.015135 
H 	 -237.070425 	 217.797267 	 -51.304351 
H 	 -238.322755 	 -768.089947 	 -50.722884 
H 	 751.051097 	 228.164030 	 -41.939396 
H 	 752.535400 	 227.792124 	 -41.626696 
H 	 -239.041410 	 -769.117288 	 -41.981263 
H 	 -238.842424 	 -768.055552 	 -43.148161 
H 	 -239.529408 	 228.482080 	 -40.750815 
H 	 -238.935312 	 -770.349149 	 -39.909179 
H 	 -240.396839 	 223.446470 	 -40.464338 
H 	 -240.908870 	 222.758330 	 -39.158611 
H 	 -243.465851 	 219.457941 	 -47.860116 
H 	 -242.852630 	 218.145805 	 -48.343792 
H 	 -239.521241 	 222.166357 	 -49.435786 
H 	 -240.424995 	 221.435520 	 -48.334197 
H 	 749.359911 	 -768.044645 	 -42.163898 
H 	 -237.028742 	 -767.600751 	 -41.644284 
H 	 -244.034348 	 220.312614 	 -40.810581 
H 	 -243.626953 	 220.309367 	 -42.328583 
H 	 -244.951486 	 -768.474953 	 -41.446781 
H 	 -244.761731 	 -769.724294 	 -40.530092 
H 	 -243.868678 	 223.130997 	 -48.187581 
H 	 -242.430142 	 223.138323 	 -47.432515 
H 	 -242.028411 	 -768.646265 	 -47.425556 
H 	 -242.670912 	 -769.484969 	 -48.453695 
H 	 752.611367 	 223.103655 	 -48.270095 
H 	 751.440049 	 224.044925 	 -48.193152 
H 	 751.401428 	 -768.229628 	 -41.418515 
H 	 752.377762 	 -769.320480 	 -41.920900 
H 	 -244.034534 	 226.539373 	 -43.867611 
H 	 -243.490448 	 228.044865 	 -43.547688 
H 	 -245.685536 	 -767.938327 	 -45.904979 
H 	 -244.998636 	 218.475106 	 -45.564214 
H 	 -236.074792 	 219.796319 	 -37.727832 
H 	 750.431183 	 219.604620 	 948.158469 
H 	 -245.331650 	 224.998358 	 -38.128192 
H 	 -246.657354 	 224.633768 	 947.736572 
H 	 -239.485420 	 228.271673 	 -50.627785 
H 	 -239.722324 	 228.631096 	 -49.149980 
H 	 -244.857804 	 225.691987 	 -49.405016 
H 	 -245.866971 	 225.936722 	 -48.243841 
H 	 -244.662232 	 228.405184 	 -49.437727 
H 	 -245.965237 	 228.048228 	 -50.080727 
H 	 -238.292211 	 223.669182 	 -46.295197 
H 	 -239.215325 	 224.753109 	 -46.909590 
H 	 -237.595316 	 226.002595 	 -42.540202 
H 	 -237.870420 	 226.730929 	 -41.172875 
H 	 751.449545 	 219.664262 	 -47.253122 
H 	 750.854472 	 218.423309 	 -46.319297 
H 	 -242.190131 	 228.190239 	 -47.481130 
H 	 -242.422188 	 227.419210 	 -48.900901 
H 	 -243.985577 	 222.236359 	 -43.505540 
H 	 -242.739641 	 221.568115 	 -44.146340 
H 	 749.996318 	 223.521897 	 -39.133451 
H 	 -236.118313 	 224.175713 	 -38.138476 
H 	 -245.532603 	 222.480106 	 -49.274242 
H 	 -245.566689 	 221.647979 	 -48.003160 
H 	 -244.848860 	 -769.911428 	 -37.619497 
H 	 -244.283039 	 -769.840130 	 -51.171363 
H 	 751.670135 	 225.283057 	 -51.118500 
H 	 -246.999594 	 225.712486 	 -50.584911 
H 	 749.585029 	 222.861416 	 -46.084388 
H 	 -236.354037 	 221.703120 	 -46.811675 
H 	 -240.070424 	 217.801052 	 -50.248669 
H 	 -240.214638 	 -768.909619 	 -50.192459 
H 	 -237.157788 	 221.561665 	 -43.531625 
H 	 -237.355946 	 221.746412 	 -45.046275 
H 	 -236.665889 	 218.571553 	 -44.881454 
H 	 -236.737056 	 -767.986948 	 -44.295376 
H 	 749.622211 	 222.210463 	 -41.755071 
H 	 -236.328829 	 221.451644 	 -40.785795 
H 	 -241.217994 	 227.173003 	 -45.158223 
H 	 -242.537861 	 226.540937 	 -45.697824 
H 	 -238.446811 	 219.519018 	 -46.290194 
H 	 -237.325906 	 219.346990 	 -47.298701 
H 	 -238.020550 	 226.507255 	 -50.759532 
H 	 -237.283717 	 226.779167 	 -49.361858 
H 	 -244.632465 	 227.885214 	 -38.762451 
H 	 -246.003799 	 228.636653 	 -38.562300 
H 	 751.303808 	 220.338169 	 -43.814547 
H 	 750.956076 	 220.349469 	 -45.310236 
H 	 -237.045627 	 227.509917 	 -46.937821 
H 	 -236.301261 	 228.454798 	 -47.807706 
H 	 -239.865276 	 217.620975 	 -47.502716 
H 	 -240.623615 	 218.082639 	 -46.062921 
H 	 -236.821918 	 219.033498 	 -49.620285 
H 	 -237.933032 	 219.941652 	 -50.254938 
H 	 -240.262848 	 222.710634 	 -46.402756 
H 	 -240.877506 	 221.327012 	 -46.101402 
H 	 -245.199378 	 221.388910 	 -38.966177 
H 	 -244.440365 	 222.596196 	 -39.677976 
H 	 -243.519419 	 219.683665 	 -51.415684 
H 	 -243.056505 	 220.122451 	 -49.990739 
H 	 -244.034098 	 226.756852 	 -51.439908 
H 	 -242.953192 	 226.426305 	 -37.691029 
H 	 -244.523665 	 -768.362678 	 -48.464902 
H 	 -244.730981 	 -768.252627 	 -49.920027 
H 	 -242.881949 	 225.111646 	 -49.039892 
H 	 -242.316895 	 225.458228 	 -50.396917 
H 	 -245.517372 	 220.827143 	 -46.138950 
H 	 -244.410547 	 220.782766 	 -45.076813 
H 	 -240.432711 	 224.336376 	 -44.355298 
H 	 -244.171997 	 224.157253 	 -41.645990 
H 	 752.620494 	 -768.548058 	 -49.779012 
H 	 751.861912 	 -769.836303 	 -49.433712 
H 	 -236.394591 	 -767.939789 	 -47.905008 
H 	 -237.455051 	 -768.516720 	 -48.762316 
H 	 -238.181028 	 223.453187 	 948.243730 
H 	 -239.012739 	 223.775893 	 -38.090417 
H 	 -242.472257 	 -769.809937 	 -43.028962 
H 	 -242.635636 	 -769.543703 	 -44.537999 
H 	 -243.267664 	 224.808635 	 -40.488439 
O 	 750.995714 	 -769.963799 	 -44.526534 
O 	 -237.221317 	 226.330854 	 -39.718586 
O 	 752.618681 	 229.220136 	 -37.602666 
O 	 -236.047749 	 -769.814951 	 -46.413028 
O 	 751.958586 	 228.288840 	 -49.602424 
O 	 749.961769 	 227.689529 	 -51.569209 
O 	 -245.677356 	 226.142650 	 -46.123429 
O 	 751.922012 	 221.490356 	 948.357862 
O 	 -245.817804 	 227.404321 	 -41.388681 
O 	 -246.740486 	 218.955563 	 -50.625567 
O 	 -238.499936 	 -769.042570 	 -45.085461 
O 	 -245.381810 	 222.255985 	 -50.942228 
O 	 -239.807910 	 219.457378 	 -50.860621 
O 	 750.021925 	 221.858756 	 -49.461016 
O 	 -241.965807 	 -769.771474 	 -40.849866 
O 	 749.950541 	 -769.629878 	 -51.451320 
O 	 -239.232682 	 227.358760 	 947.737883 
O 	 752.464806 	 224.486857 	 -40.545198 
O 	 -244.707748 	 223.697017 	 -43.363819 
O 	 -241.470530 	 222.793695 	 -42.086901 
O 	 -244.082428 	 -767.706567 	 -43.007201 
O 	 -240.214590 	 220.098497 	 -42.081482 
O 	 750.250553 	 227.135270 	 -44.880337 
O 	 752.612139 	 -768.705703 	 -46.547599 
O 	 -240.302772 	 225.948339 	 -47.918473 
O 	 -241.245729 	 -769.102886 	 947.988465 
O 	 -244.005622 	 218.493993 	 -37.739375 
O 	 -241.374761 	 217.692024 	 -43.699028 
O 	 750.990115 	 219.073500 	 -40.016003 
O 	 750.074684 	 224.176163 	 -42.157679 
O 	 -238.196911 	 -770.291834 	 -38.219827 
O 	 750.367338 	 224.659976 	 -50.388586 
O 	 -235.936665 	 228.970668 	 -42.354270 
O 	 751.301049 	 221.962154 	 -39.470608 
O 	 751.382627 	 226.255849 	 -47.421063 
O 	 -237.684717 	 226.853391 	 -45.314066 
O 	 752.406098 	 225.602100 	 -43.673035 
O 	 -241.098072 	 226.910657 	 -41.484040 
O 	 -241.248422 	 223.912174 	 -51.047370 
O 	 -237.238535 	 221.255069 	 -38.679806 
O 	 -242.396187 	 218.239626 	 -39.988223 
O 	 -238.080223 	 223.469094 	 -49.550893 
O 	 -246.733217 	 219.842878 	 -48.045291 
O 	 749.476165 	 -770.063754 	 -39.508983 
O 	 -241.675576 	 221.684316 	 -37.962185 
O 	 -239.987974 	 228.392462 	 -44.016803 
O 	 752.730238 	 -768.043779 	 -39.138086 
O 	 -246.273642 	 219.809446 	 -38.796898 
O 	 -243.339312 	 224.973062 	 -45.018541 
O 	 -246.574390 	 222.331414 	 -45.228419 
O 	 -245.524599 	 228.779457 	 -46.741576 
O 	 -239.576699 	 219.155031 	 -39.283825 
O 	 -237.370359 	 224.501893 	 -43.667472 
O 	 -240.072771 	 220.060444 	 -44.950961 
O 	 -241.513816 	 226.251218 	 -38.987712 
O 	 -237.655636 	 -768.024697 	 -51.441029 
O 	 751.583322 	 227.649320 	 -41.347057 
O 	 -239.077965 	 -768.152000 	 -42.190372 
O 	 -239.288667 	 -770.585914 	 -40.788395 
O 	 -240.452068 	 223.582090 	 -39.511096 
O 	 -242.735176 	 219.108986 	 -48.426539 
O 	 -240.186300 	 221.485920 	 -49.275293 
O 	 -236.086652 	 -767.722901 	 -41.321398 
O 	 -243.849356 	 219.744070 	 -41.555739 
O 	 -245.443476 	 -769.138893 	 -40.954518 
O 	 -243.065817 	 223.699199 	 -47.954740 
O 	 -242.900098 	 -769.045153 	 -47.637336 
O 	 751.721394 	 223.146446 	 -47.870502 
O 	 751.745393 	 -768.652407 	 -42.262228 
O 	 -243.854222 	 227.207718 	 -43.151617 
O 	 -244.812695 	 -767.596859 	 -45.562820 
O 	 749.792151 	 219.170688 	 -37.609215 
O 	 -246.005613 	 224.271873 	 -38.070927 
O 	 -239.385232 	 229.042218 	 -50.005019 
O 	 -245.764758 	 226.017700 	 -49.236300 
O 	 -245.250359 	 228.723048 	 -50.152692 
O 	 -239.148006 	 224.058250 	 -46.188297 
O 	 -238.099496 	 226.788103 	 -42.179779 
O 	 750.700166 	 219.320838 	 -46.764372 
O 	 -242.249204 	 228.321790 	 -48.480443 
O 	 -243.622627 	 221.354128 	 -43.767858 
O 	 749.550212 	 224.374976 	 -38.898947 
O 	 -245.551670 	 222.595307 	 -48.258843 
O 	 -244.503243 	 -769.224992 	 948.094272 
O 	 752.510708 	 225.755533 	 -51.396746 
O 	 -236.377156 	 222.663342 	 -46.576704 
O 	 -239.797656 	 -768.129721 	 -49.809628 
O 	 -237.858918 	 221.689260 	 -44.202281 
O 	 -236.259031 	 217.972875 	 -44.186377 
O 	 -236.174462 	 221.532638 	 -41.718366 
O 	 -241.863525 	 227.228824 	 -45.911104 
O 	 -237.481784 	 219.703619 	 -46.406639 
O 	 -237.287244 	 226.236499 	 -50.172680 
O 	 -245.155393 	 228.730964 	 -38.916002 
O 	 751.178483 	 220.998211 	 -44.521491 
O 	 -236.678892 	 227.565518 	 -47.875649 
O 	 -240.265630 	 -767.758119 	 -46.641224 
O 	 -237.017658 	 219.930429 	 -49.895849 
O 	 -240.952999 	 222.061290 	 -46.727197 
O 	 -244.346619 	 221.697564 	 -39.387795 
O 	 -243.294907 	 220.488594 	 -50.853346 
O 	 -243.936050 	 226.540344 	 947.612408 
O 	 -245.171539 	 -768.116861 	 -49.096970 
O 	 -242.870564 	 225.867559 	 -49.702963 
O 	 -244.838918 	 220.230133 	 -45.827714 
O 	 -240.980339 	 224.832593 	 -43.705756 
O 	 751.726462 	 -768.851867 	 -49.487146 
O 	 -237.021268 	 -767.664281 	 -48.588271 
O 	 -238.098408 	 223.702844 	 -37.811517 
O 	 -242.467117 	 -770.265166 	 -43.879081 
O 	 -243.620985 	 223.967594 	 -40.822622 
K 	 751.173532 	 226.751351 	 -38.978767 
