333
conformation = 27
H 	 4.891165 	 -7.504758 	 -3.411756 
H 	 4.813544 	 -5.984463 	 -2.690759 
H 	 1.325234 	 4.432435 	 2.140009 
H 	 2.461239 	 3.904174 	 1.349358 
H 	 6.788788 	 -7.464327 	 4.168017 
H 	 6.352673 	 -6.448819 	 3.019282 
H 	 2.243389 	 -6.347425 	 -4.801588 
H 	 3.742051 	 -6.435295 	 -4.985877 
H 	 5.826046 	 6.095903 	 7.145080 
H 	 5.257143 	 6.200375 	 5.680141 
H 	 3.151100 	 5.519559 	 4.728200 
H 	 3.705522 	 6.967446 	 4.457671 
H 	 -5.981361 	 3.791189 	 -4.579923 
H 	 -6.446211 	 5.226386 	 -5.102510 
H 	 5.309618 	 -0.291143 	 5.067999 
H 	 6.706162 	 0.154334 	 4.573790 
H 	 -6.157267 	 5.821460 	 -1.094372 
H 	 -6.637454 	 6.417782 	 0.193973 
H 	 6.823399 	 -2.002542 	 4.572704 
H 	 -6.869565 	 -2.814460 	 4.879864 
H 	 -0.040988 	 -6.539079 	 -3.698792 
H 	 -0.159115 	 -5.231265 	 -4.570406 
H 	 -5.514578 	 -0.031062 	 4.915929 
H 	 -6.299777 	 1.105882 	 4.164586 
H 	 -0.995293 	 -2.096548 	 4.126128 
H 	 -0.915566 	 -1.497866 	 5.600783 
H 	 3.349247 	 -0.413353 	 6.769120 
H 	 4.530719 	 0.612701 	 7.112165 
H 	 -2.076132 	 -6.596836 	 0.037161 
H 	 -3.050113 	 -5.489928 	 0.536629 
H 	 3.089288 	 -5.635200 	 4.484103 
H 	 4.553093 	 -5.777919 	 5.010699 
H 	 0.064825 	 6.492163 	 3.400422 
H 	 -0.957266 	 5.175222 	 3.220816 
H 	 7.173044 	 2.935825 	 1.024144 
H 	 6.194212 	 1.889666 	 0.499597 
H 	 -5.164572 	 2.343158 	 -3.055881 
H 	 -6.468287 	 1.570250 	 -2.499066 
H 	 -3.194290 	 1.311385 	 -0.739238 
H 	 -2.106038 	 1.700291 	 -1.763625 
H 	 -5.476427 	 -4.406119 	 -2.809364 
H 	 -5.138063 	 -3.504282 	 -1.491624 
H 	 -1.823083 	 -0.867859 	 -1.036018 
H 	 -1.685106 	 -2.392381 	 -1.163809 
H 	 4.591260 	 4.859386 	 -3.140901 
H 	 3.265926 	 5.348573 	 -3.821965 
H 	 6.116145 	 -5.703316 	 -6.251542 
H 	 6.105588 	 -5.769349 	 -4.713976 
H 	 -1.560232 	 4.227074 	 6.949329 
H 	 -1.829146 	 4.567193 	 -6.437156 
H 	 -2.312064 	 -6.712345 	 4.247383 
H 	 -3.139249 	 -5.722240 	 3.454847 
H 	 -4.329305 	 -3.112858 	 2.463937 
H 	 -5.114553 	 -4.170616 	 3.439280 
H 	 -1.963004 	 -4.506826 	 -1.843057 
H 	 -3.326631 	 -4.016811 	 -2.450271 
H 	 4.186168 	 -2.910198 	 0.339818 
H 	 4.371884 	 -2.759922 	 1.834845 
H 	 4.712922 	 2.494559 	 -1.914489 
H 	 4.140564 	 3.177266 	 -0.685401 
H 	 0.918804 	 -6.159265 	 3.409642 
H 	 1.801131 	 -6.929376 	 2.332977 
H 	 4.106604 	 1.992223 	 5.562115 
H 	 3.471149 	 3.458881 	 5.731116 
H 	 2.837436 	 7.236781 	 -0.388824 
H 	 2.374909 	 6.352086 	 -1.530946 
H 	 4.776470 	 -0.632372 	 1.102803 
H 	 5.412499 	 -0.165593 	 2.404150 
H 	 6.260443 	 4.349180 	 -6.052722 
H 	 4.759295 	 4.746871 	 -5.691710 
H 	 1.196431 	 4.254421 	 -3.978185 
H 	 0.509906 	 5.639664 	 -4.138861 
H 	 6.882973 	 3.672513 	 -1.885549 
H 	 7.050449 	 4.293110 	 -3.305450 
H 	 -2.785919 	 5.433438 	 -1.007974 
H 	 -1.554288 	 4.486265 	 -1.009628 
H 	 -2.444670 	 1.711803 	 5.727317 
H 	 -2.558088 	 1.630017 	 4.130599 
H 	 1.661054 	 0.368267 	 2.553450 
H 	 0.764695 	 -0.867538 	 2.241172 
H 	 -3.499004 	 -2.789382 	 0.569340 
H 	 -2.273449 	 -3.466561 	 1.310506 
H 	 1.178236 	 2.529569 	 6.461812 
H 	 1.798710 	 1.127026 	 6.705495 
H 	 7.295145 	 -2.056339 	 6.898130 
H 	 7.559774 	 -2.884076 	 -6.723658 
H 	 3.910313 	 -6.184489 	 2.304505 
H 	 3.339889 	 -5.863487 	 0.946280 
H 	 -2.837732 	 -0.356239 	 3.891064 
H 	 -3.621712 	 0.009557 	 2.589461 
H 	 -0.770302 	 6.475056 	 -2.119760 
H 	 -1.760865 	 7.112532 	 -3.001833 
H 	 5.900397 	 -4.051644 	 1.654993 
H 	 7.197074 	 -4.864247 	 1.097170 
H 	 -6.377221 	 -2.530330 	 2.322167 
H 	 6.967201 	 -2.363437 	 1.930732 
H 	 -2.718105 	 3.101425 	 -3.404548 
H 	 -4.269306 	 2.818251 	 -4.867589 
H 	 6.649077 	 -0.127355 	 -4.097940 
H 	 7.042338 	 1.188548 	 -4.855107 
H 	 -5.816084 	 -7.146577 	 -5.888955 
H 	 7.558883 	 -7.197944 	 -5.790392 
H 	 -0.132485 	 -3.427248 	 1.364697 
H 	 -0.729943 	 -2.252990 	 0.769476 
H 	 1.096888 	 1.932576 	 -2.876691 
H 	 2.342212 	 2.422858 	 -2.003386 
H 	 -0.258372 	 -1.202454 	 -3.329964 
H 	 -1.447357 	 -2.233875 	 -3.278034 
H 	 -2.159627 	 3.517690 	 1.764991 
H 	 -2.142323 	 4.979864 	 1.211149 
H 	 1.910626 	 -3.916647 	 4.496184 
H 	 0.622077 	 -4.666762 	 5.054889 
H 	 5.070613 	 6.604496 	 -0.883013 
H 	 6.359043 	 5.804689 	 -0.637132 
H 	 -0.197202 	 -5.799695 	 -1.055400 
H 	 0.331764 	 -4.630753 	 -2.021319 
H 	 -0.706755 	 6.879698 	 0.062116 
H 	 0.045609 	 -7.144176 	 1.151963 
H 	 -1.479501 	 1.679862 	 0.576845 
H 	 -1.832073 	 1.173156 	 2.038495 
H 	 -3.997990 	 -2.194743 	 -6.521840 
H 	 -3.982105 	 -3.485127 	 -7.270796 
H 	 -0.480545 	 0.407846 	 6.550784 
H 	 -1.543739 	 -0.278315 	 -7.349165 
H 	 3.011100 	 -4.627350 	 -1.166594 
H 	 1.958864 	 -4.543559 	 -0.199152 
H 	 -5.281049 	 -1.320218 	 0.138465 
H 	 -4.718149 	 -1.377810 	 -1.319592 
H 	 -5.820360 	 -5.732894 	 -0.596187 
H 	 -5.818323 	 -6.336050 	 0.875367 
H 	 -4.871746 	 1.432370 	 -7.014059 
H 	 -3.249518 	 1.236489 	 -6.887506 
H 	 -3.075641 	 -5.376629 	 -6.241746 
H 	 -3.555636 	 -6.519362 	 -7.075720 
H 	 6.582471 	 1.492362 	 -6.928159 
H 	 5.493498 	 2.509045 	 -7.024233 
H 	 5.400527 	 -4.769395 	 -0.441309 
H 	 6.362914 	 -5.929461 	 -0.813818 
H 	 -4.908583 	 4.703696 	 -2.826311 
H 	 -4.512008 	 6.251449 	 -2.720702 
H 	 -6.531323 	 -4.672658 	 -4.904719 
H 	 -5.885286 	 -3.325361 	 -4.890700 
H 	 2.990805 	 -1.885356 	 3.282521 
H 	 4.503941 	 -2.238001 	 3.842275 
H 	 -6.113198 	 3.113271 	 3.010297 
H 	 7.328879 	 3.024062 	 3.473707 
H 	 -0.401426 	 6.473177 	 5.420990 
H 	 -0.755934 	 7.086329 	 6.814809 
H 	 -5.734849 	 4.247293 	 6.672514 
H 	 -6.982195 	 4.453122 	 -7.300414 
H 	 -5.676840 	 6.685803 	 6.506148 
H 	 -7.080586 	 6.457007 	 5.851675 
H 	 0.787513 	 1.991886 	 -5.408392 
H 	 -0.334264 	 2.845318 	 -6.047278 
H 	 0.684086 	 4.304252 	 -1.520829 
H 	 1.316683 	 4.775915 	 -0.213061 
H 	 5.227239 	 -2.445711 	 -6.411013 
H 	 4.695354 	 -3.152295 	 -5.025534 
H 	 -3.346138 	 6.382859 	 -6.548498 
H 	 -3.266395 	 5.790833 	 6.879482 
H 	 -5.035137 	 0.558033 	 -2.626078 
H 	 -3.622728 	 -0.137584 	 -2.636885 
H 	 3.985104 	 1.715719 	 1.726691 
H 	 3.033497 	 2.292730 	 2.788204 
H 	 -6.582899 	 0.755178 	 6.585020 
H 	 -6.892532 	 -0.012492 	 -7.010946 
H 	 -5.524781 	 -6.739083 	 3.404047 
H 	 -5.571996 	 -6.369013 	 4.900501 
H 	 5.618308 	 3.673346 	 4.788788 
H 	 6.994205 	 4.061721 	 5.378277 
H 	 3.676628 	 1.291666 	 -5.504097 
H 	 2.708438 	 0.019873 	 -5.712924 
H 	 -0.966517 	 -3.864923 	 5.757372 
H 	 -1.224137 	 -5.371642 	 5.699099 
H 	 1.685770 	 -0.214779 	 -2.259873 
H 	 1.962812 	 0.176014 	 -3.841891 
H 	 2.132147 	 -3.135329 	 -3.885954 
H 	 2.422165 	 -4.542098 	 -3.370887 
H 	 3.295033 	 0.598143 	 -0.844746 
H 	 2.257300 	 -0.184045 	 0.046829 
H 	 -1.959509 	 5.728087 	 -4.472514 
H 	 -3.257665 	 4.787450 	 -4.291992 
H 	 0.484891 	 -2.107656 	 -5.215733 
H 	 1.682835 	 -2.250459 	 -6.148938 
H 	 1.130372 	 4.874331 	 5.196889 
H 	 1.879755 	 5.155478 	 6.654445 
H 	 -5.611974 	 6.133504 	 2.493290 
H 	 -6.856080 	 7.133747 	 2.462991 
H 	 5.010978 	 -1.518660 	 -2.907535 
H 	 4.766389 	 -1.052565 	 -4.310010 
H 	 1.899954 	 5.543395 	 -6.036773 
H 	 2.363158 	 6.853144 	 -6.798917 
H 	 -0.842275 	 -4.180932 	 -6.540258 
H 	 -1.645981 	 -3.541384 	 -5.281938 
H 	 2.163925 	 -2.525766 	 6.561307 
H 	 1.135070 	 -1.785634 	 5.677416 
H 	 -1.206462 	 0.961658 	 -5.507577 
H 	 -1.648488 	 -0.402415 	 -5.012380 
H 	 -6.320994 	 -0.456398 	 1.699256 
H 	 -5.501045 	 0.797307 	 1.286953 
H 	 -4.414126 	 -1.972901 	 4.468242 
H 	 -3.935912 	 -1.740044 	 5.920687 
H 	 -4.929801 	 4.933100 	 4.605414 
H 	 -4.043934 	 4.787440 	 3.228848 
H 	 -5.370183 	 -5.121625 	 -7.357025 
H 	 -5.729185 	 -4.908748 	 6.082344 
H 	 -3.765619 	 3.329083 	 6.934088 
H 	 -3.588115 	 3.551340 	 5.439717 
H 	 -6.451663 	 -0.962179 	 -5.034860 
H 	 -5.264976 	 -1.051219 	 -4.100787 
H 	 -1.197618 	 3.353881 	 -3.514794 
H 	 -5.239867 	 2.504920 	 -0.480401 
H 	 6.536027 	 -5.028493 	 6.236355 
H 	 5.964209 	 -6.452175 	 6.430095 
H 	 2.428863 	 -5.032978 	 -6.900388 
H 	 1.281872 	 -4.925156 	 7.048359 
H 	 0.587320 	 1.897575 	 4.058671 
H 	 0.102323 	 1.929344 	 2.652025 
H 	 -3.394719 	 -6.352601 	 -2.087167 
H 	 -3.524214 	 -6.181767 	 -3.664518 
H 	 -4.408672 	 3.109184 	 0.653418 
O 	 4.917408 	 -6.538804 	 -3.504149 
O 	 1.834455 	 4.665054 	 1.304410 
O 	 6.663000 	 -7.375753 	 3.220494 
O 	 2.916876 	 -6.513012 	 -5.481121 
O 	 5.827991 	 6.641076 	 6.333236 
O 	 3.888106 	 5.986683 	 4.322748 
O 	 -6.679701 	 4.277008 	 -5.092212 
O 	 5.902151 	 -0.289400 	 4.272610 
O 	 -6.803074 	 5.665525 	 -0.360735 
O 	 7.135450 	 -2.695871 	 5.221352 
O 	 0.467604 	 -5.813453 	 -4.098961 
O 	 -6.343964 	 0.490196 	 4.937135 
O 	 -0.707026 	 -2.283820 	 5.009443 
O 	 3.962691 	 0.263794 	 6.382300 
O 	 -3.002693 	 -6.319546 	 0.036123 
O 	 3.843383 	 -6.213131 	 4.499201 
O 	 -0.193171 	 5.608711 	 3.685691 
O 	 6.431803 	 2.823583 	 0.410243 
O 	 -5.638588 	 1.925618 	 -2.238085 
O 	 -2.280457 	 1.081739 	 -1.024210 
O 	 -5.169107 	 -4.428628 	 -1.855907 
O 	 -1.188533 	 -1.620335 	 -0.973714 
O 	 4.242164 	 5.384211 	 -3.823273 
O 	 6.579487 	 -5.374771 	 -5.464931 
O 	 -1.204021 	 4.202531 	 -7.047786 
O 	 -2.273502 	 -5.765246 	 3.900107 
O 	 -4.971325 	 -3.178131 	 3.246828 
O 	 -2.380674 	 -4.185693 	 -2.695008 
O 	 4.904853 	 -2.789008 	 0.997443 
O 	 3.926903 	 2.485741 	 -1.321284 
O 	 0.939043 	 -6.898590 	 2.826185 
O 	 4.339269 	 2.937289 	 5.545545 
O 	 2.934123 	 7.148418 	 -1.359948 
O 	 5.207234 	 0.159778 	 1.474556 
O 	 5.405484 	 4.605285 	 -6.472569 
O 	 1.360764 	 5.153216 	 -4.273463 
O 	 6.352674 	 3.920120 	 -2.698877 
O 	 -1.933732 	 5.255037 	 -0.581730 
O 	 -2.256986 	 2.217249 	 4.868080 
O 	 1.705029 	 -0.612766 	 2.334570 
O 	 -3.235968 	 -3.562922 	 1.065263 
O 	 0.998769 	 1.603994 	 6.378678 
O 	 7.207169 	 -2.032387 	 -7.008611 
O 	 3.453507 	 -6.613408 	 1.566415 
O 	 -2.725740 	 -0.001491 	 2.947388 
O 	 -0.925382 	 6.591428 	 -3.073776 
O 	 6.661632 	 -4.615527 	 1.947085 
O 	 -7.160258 	 -1.904845 	 2.235980 
O 	 -4.355103 	 3.221569 	 -3.988620 
O 	 7.390455 	 0.600977 	 -4.164199 
O 	 -6.542262 	 7.109214 	 -5.785085 
O 	 -0.472922 	 -2.551305 	 1.688868 
O 	 1.656924 	 2.680281 	 -2.663303 
O 	 -0.951796 	 -1.662835 	 -3.941891 
O 	 -2.412938 	 4.446791 	 2.062502 
O 	 1.458293 	 -4.758182 	 4.445628 
O 	 5.478243 	 6.002389 	 -0.250480 
O 	 -0.180333 	 -4.810947 	 -1.189946 
O 	 -0.229822 	 -7.169377 	 0.175052 
O 	 -1.325900 	 1.891928 	 1.509658 
O 	 -3.670595 	 -2.561234 	 -7.391752 
O 	 -1.153849 	 -0.253563 	 6.620778 
O 	 2.948825 	 -4.383233 	 -0.234857 
O 	 -4.823329 	 -1.922495 	 -0.509874 
O 	 -6.359561 	 -5.853797 	 0.207598 
O 	 -3.987058 	 1.906954 	 -6.926530 
O 	 -3.895674 	 -5.697429 	 -6.675169 
O 	 5.598254 	 1.535322 	 -6.846739 
O 	 5.715525 	 -5.319447 	 -1.216539 
O 	 -4.729371 	 5.441252 	 -2.164863 
O 	 -5.721756 	 -4.233555 	 -4.593849 
O 	 3.679182 	 -2.562112 	 3.357722 
O 	 -6.904077 	 2.499282 	 2.995214 
O 	 -0.429973 	 7.354924 	 5.899282 
O 	 -6.728502 	 4.328888 	 6.658310 
O 	 -6.244091 	 6.952098 	 5.764275 
O 	 -0.109163 	 2.245979 	 -5.265456 
O 	 0.978081 	 5.116679 	 -1.084117 
O 	 4.537266 	 -2.416092 	 -5.702870 
O 	 -3.259372 	 6.630183 	 7.393826 
O 	 -4.566339 	 -0.334402 	 -2.819357 
O 	 3.485066 	 2.549159 	 1.957143 
O 	 -6.569696 	 0.833298 	 -7.358451 
O 	 -5.502170 	 -5.921345 	 4.014356 
O 	 6.510372 	 4.040391 	 4.509336 
O 	 2.725958 	 0.984525 	 -5.521833 
O 	 -0.694311 	 -4.694704 	 6.170564 
O 	 1.304732 	 -0.033390 	 -3.140013 
O 	 2.693800 	 -3.609539 	 -3.198469 
O 	 2.799784 	 -0.241548 	 -0.734653 
O 	 -2.813347 	 5.433806 	 -4.902785 
O 	 1.441637 	 -1.835476 	 -5.303655 
O 	 1.831598 	 4.543569 	 5.793864 
O 	 -5.974985 	 6.903550 	 1.938912 
O 	 5.173481 	 -0.743944 	 -3.460377 
O 	 2.312251 	 5.882171 	 -6.881996 
O 	 -1.318442 	 -4.373595 	 -5.709012 
O 	 2.059344 	 -1.737493 	 6.026178 
O 	 -1.873716 	 0.235961 	 -5.717839 
O 	 -5.378530 	 -0.068563 	 1.616954 
O 	 -4.177208 	 -1.266739 	 5.102041 
O 	 -4.927604 	 4.830838 	 3.643601 
O 	 -6.091529 	 -4.827397 	 6.954432 
O 	 -3.879159 	 4.070657 	 6.229381 
O 	 -5.743801 	 -1.550421 	 -4.820016 
O 	 -1.888240 	 3.121117 	 -2.869716 
O 	 5.686805 	 -5.517490 	 6.379616 
O 	 2.038622 	 -4.388406 	 7.372837 
O 	 0.903202 	 1.959282 	 3.153505 
O 	 -3.358933 	 -6.798329 	 -2.912871 
O 	 -4.687418 	 2.249648 	 0.283448 
K 	 5.083211 	 4.978647 	 2.005208 
