333
conformation = 64
H 	 4.930724 	 -7.494940 	 -3.551886 
H 	 5.241544 	 -6.162397 	 -2.619934 
H 	 1.445705 	 4.556452 	 2.221262 
H 	 2.462910 	 3.826161 	 1.420573 
H 	 6.546797 	 7.382120 	 3.946331 
H 	 6.675987 	 -6.381945 	 2.849306 
H 	 2.003961 	 -6.491323 	 -5.149103 
H 	 3.494736 	 -6.663700 	 -4.793585 
H 	 5.769028 	 6.085404 	 7.184417 
H 	 5.204886 	 6.464132 	 5.749562 
H 	 3.244653 	 5.607110 	 4.909839 
H 	 3.785369 	 6.972549 	 4.467098 
H 	 -5.700616 	 3.918256 	 -4.736280 
H 	 -6.665730 	 5.148002 	 -5.088923 
H 	 5.460903 	 0.146546 	 4.950744 
H 	 6.931280 	 -0.044388 	 4.499179 
H 	 -5.966014 	 5.458887 	 -0.954977 
H 	 -6.180115 	 5.780334 	 0.478860 
H 	 6.733671 	 -1.876280 	 4.755983 
H 	 -6.862718 	 -2.694251 	 4.644836 
H 	 0.155838 	 -6.841522 	 -3.826053 
H 	 -0.075046 	 -5.568942 	 -4.682238 
H 	 -5.434736 	 -0.071914 	 4.704360 
H 	 -6.248795 	 1.151014 	 4.202938 
H 	 -0.848078 	 -2.220420 	 4.065527 
H 	 -0.980016 	 -1.562096 	 5.558545 
H 	 3.695559 	 -0.441094 	 6.308703 
H 	 4.575946 	 0.608696 	 7.156479 
H 	 -2.095311 	 -6.495254 	 0.144051 
H 	 -3.061848 	 -5.250246 	 0.043494 
H 	 3.072040 	 -5.768537 	 4.915833 
H 	 4.630931 	 -5.878279 	 5.186550 
H 	 0.512066 	 6.254310 	 3.400374 
H 	 -0.851192 	 5.349953 	 3.319672 
H 	 7.453861 	 3.211167 	 0.818294 
H 	 6.455662 	 1.945358 	 0.678557 
H 	 -4.983015 	 2.445831 	 -2.770103 
H 	 -6.470381 	 1.884095 	 -2.526380 
H 	 -2.811985 	 1.524603 	 -0.611558 
H 	 -1.614913 	 1.768165 	 -1.609307 
H 	 -5.432609 	 -4.476318 	 -2.629893 
H 	 -5.546717 	 -3.838658 	 -1.166833 
H 	 -1.373480 	 -0.675012 	 -0.775181 
H 	 -1.820624 	 -2.128641 	 -1.223984 
H 	 4.910255 	 4.676746 	 -3.196393 
H 	 3.471567 	 5.427533 	 -3.703336 
H 	 6.211131 	 -4.983060 	 -6.005194 
H 	 6.058319 	 -5.788991 	 -4.675802 
H 	 -1.679994 	 3.682992 	 7.231246 
H 	 -1.430581 	 4.560789 	 -6.372595 
H 	 -2.235255 	 -6.597608 	 4.486782 
H 	 -3.209690 	 -5.674504 	 3.903232 
H 	 -4.129666 	 -3.429731 	 2.573937 
H 	 -5.050332 	 -4.026824 	 3.647675 
H 	 -1.678597 	 -4.668876 	 -2.165493 
H 	 -3.113530 	 -4.317553 	 -2.067878 
H 	 4.175540 	 -3.259021 	 0.524232 
H 	 4.612200 	 -2.831065 	 1.969956 
H 	 4.855133 	 2.404258 	 -2.027776 
H 	 4.358095 	 3.020827 	 -0.666236 
H 	 1.075086 	 -6.109899 	 3.413853 
H 	 2.038016 	 -6.911516 	 2.406879 
H 	 4.075091 	 2.091023 	 5.939715 
H 	 3.725036 	 3.598972 	 5.765327 
H 	 3.006717 	 7.178034 	 -0.359844 
H 	 2.175626 	 6.366222 	 -1.291438 
H 	 4.886745 	 -0.673235 	 1.051009 
H 	 5.529851 	 -0.111450 	 2.307924 
H 	 6.541689 	 4.442445 	 -6.025548 
H 	 5.190993 	 5.099877 	 -5.733588 
H 	 1.490611 	 4.331444 	 -3.714791 
H 	 0.872248 	 5.729043 	 -3.752113 
H 	 7.071083 	 3.843419 	 -1.913543 
H 	 7.098291 	 3.787839 	 -3.427959 
H 	 -2.641099 	 5.756851 	 -0.833597 
H 	 -1.678282 	 4.578320 	 -1.299510 
H 	 -1.669406 	 1.548792 	 5.306058 
H 	 -2.453770 	 1.954325 	 4.042701 
H 	 1.280375 	 -0.224303 	 3.005279 
H 	 1.139536 	 -1.539896 	 2.299430 
H 	 -3.408138 	 -3.126976 	 0.495816 
H 	 -2.136014 	 -3.169815 	 1.480609 
H 	 1.293944 	 2.444292 	 6.225667 
H 	 2.097925 	 1.091571 	 6.435380 
H 	 7.162075 	 -2.660609 	 7.106983 
H 	 -6.887298 	 -2.649147 	 -6.421274 
H 	 3.998948 	 -6.360796 	 2.622446 
H 	 3.881517 	 -5.663372 	 1.283605 
H 	 -3.107782 	 -0.420189 	 3.702655 
H 	 -3.597986 	 -0.033470 	 2.270134 
H 	 -0.665538 	 6.028351 	 -2.358036 
H 	 -1.541829 	 7.137651 	 -2.747608 
H 	 6.306256 	 -4.336850 	 1.344094 
H 	 7.629161 	 -4.938600 	 1.847955 
H 	 -6.484341 	 -2.581673 	 2.612104 
H 	 7.101700 	 -2.076600 	 1.776433 
H 	 -2.597876 	 3.109107 	 -3.347471 
H 	 -4.123781 	 2.577142 	 -4.656333 
H 	 6.722785 	 0.678451 	 -3.698485 
H 	 7.523188 	 1.282945 	 -4.819738 
H 	 -5.578536 	 -7.283532 	 -5.692133 
H 	 -7.079821 	 -6.950717 	 -5.759280 
H 	 0.349925 	 -3.242961 	 1.804008 
H 	 -0.316280 	 -2.461210 	 0.661134 
H 	 1.468769 	 1.709465 	 -2.780356 
H 	 2.537834 	 2.848388 	 -2.475168 
H 	 -0.129342 	 -1.283049 	 -3.274557 
H 	 -1.010525 	 -2.473830 	 -3.411123 
H 	 -1.669684 	 3.562130 	 2.072274 
H 	 -2.248214 	 4.696922 	 1.275347 
H 	 1.809761 	 -3.883074 	 4.056163 
H 	 1.038779 	 -4.708275 	 5.125434 
H 	 4.925118 	 6.435001 	 -0.956657 
H 	 6.399295 	 6.220970 	 -0.550333 
H 	 -0.043155 	 -5.610852 	 -0.580310 
H 	 0.308135 	 -5.073150 	 -1.941736 
H 	 0.284601 	 6.942776 	 -0.147172 
H 	 0.249599 	 -7.058131 	 1.089225 
H 	 -1.216657 	 1.607663 	 0.663392 
H 	 -1.589075 	 1.271625 	 2.121959 
H 	 -3.942102 	 -1.919924 	 -6.562931 
H 	 -4.148159 	 -3.183739 	 -7.397602 
H 	 -0.135139 	 0.224398 	 6.597578 
H 	 -1.349841 	 -0.317180 	 -7.352170 
H 	 2.989258 	 -4.049276 	 -1.041815 
H 	 2.033995 	 -4.359155 	 0.070374 
H 	 -4.898245 	 -1.199107 	 0.282569 
H 	 -4.685296 	 -1.233879 	 -1.231663 
H 	 -5.748613 	 -5.494726 	 -0.300277 
H 	 -5.707783 	 -6.764766 	 0.684239 
H 	 -4.754307 	 1.522548 	 -6.875410 
H 	 -3.271526 	 1.209480 	 -6.357466 
H 	 -3.125746 	 -5.311380 	 -6.062876 
H 	 -3.255877 	 -6.598468 	 -6.905743 
H 	 6.516654 	 1.557739 	 -7.143395 
H 	 5.568995 	 2.681470 	 -6.978111 
H 	 5.426167 	 -4.851303 	 -0.432035 
H 	 6.776696 	 -5.592358 	 -0.703904 
H 	 -4.155971 	 4.724679 	 -2.784366 
H 	 -4.278307 	 6.281200 	 -2.622391 
H 	 -6.461453 	 -4.540369 	 -4.879763 
H 	 -5.638706 	 -3.322767 	 -4.504630 
H 	 3.169177 	 -1.768802 	 3.065064 
H 	 4.231569 	 -2.337232 	 4.132058 
H 	 -5.810853 	 2.996337 	 3.138586 
H 	 -7.241960 	 2.934152 	 3.654126 
H 	 -0.473272 	 6.721089 	 5.317138 
H 	 -1.021729 	 7.042073 	 6.632216 
H 	 -5.726949 	 4.241437 	 6.411671 
H 	 -6.421151 	 4.317642 	 -7.191871 
H 	 -5.701488 	 7.250052 	 6.637716 
H 	 -7.067771 	 6.916005 	 6.124394 
H 	 1.012970 	 1.963983 	 -5.479966 
H 	 -0.154141 	 2.878735 	 -6.041704 
H 	 1.353590 	 4.292891 	 -1.459888 
H 	 1.152593 	 4.952932 	 -0.050077 
H 	 5.465039 	 -2.397001 	 -5.912073 
H 	 4.249538 	 -3.160669 	 -5.162233 
H 	 -3.023976 	 6.007275 	 -6.755724 
H 	 -3.526791 	 6.166818 	 6.655432 
H 	 -4.798223 	 0.526847 	 -2.533127 
H 	 -3.348373 	 -0.079657 	 -2.568500 
H 	 4.279140 	 1.608242 	 1.755163 
H 	 2.896075 	 2.072846 	 2.293361 
H 	 -6.388467 	 0.937065 	 6.563067 
H 	 -6.486829 	 -0.192219 	 -7.341711 
H 	 -5.256069 	 -6.217055 	 3.161159 
H 	 -5.910226 	 -6.712817 	 4.392477 
H 	 6.139394 	 3.556330 	 5.155649 
H 	 7.230193 	 4.521371 	 5.177606 
H 	 3.723426 	 1.215554 	 -5.962367 
H 	 2.617286 	 0.156268 	 -5.708889 
H 	 -0.687626 	 -3.717415 	 5.860449 
H 	 -0.994819 	 -5.301297 	 5.969773 
H 	 1.961708 	 -0.297964 	 -2.085123 
H 	 2.208525 	 -0.091751 	 -3.607915 
H 	 2.436594 	 -2.605170 	 -3.596786 
H 	 2.582948 	 -4.118896 	 -3.907231 
H 	 3.129116 	 0.641216 	 -0.671520 
H 	 2.348047 	 -0.393884 	 0.188281 
H 	 -2.142385 	 5.598543 	 -4.177319 
H 	 -3.193607 	 4.572204 	 -4.708061 
H 	 0.597215 	 -1.621044 	 -4.979992 
H 	 1.524086 	 -2.528441 	 -5.690358 
H 	 1.232465 	 4.721423 	 5.380847 
H 	 2.105935 	 5.236772 	 6.672167 
H 	 -5.294601 	 6.134318 	 2.547856 
H 	 -6.570165 	 6.923436 	 2.193302 
H 	 4.973274 	 -1.346766 	 -2.614271 
H 	 5.101016 	 -1.419170 	 -4.159051 
H 	 2.028549 	 5.381173 	 -6.116948 
H 	 2.698102 	 6.711388 	 -6.314122 
H 	 -1.387299 	 -4.546669 	 -6.764413 
H 	 -1.266002 	 -3.424538 	 -5.665923 
H 	 2.350379 	 -2.618661 	 6.538612 
H 	 1.390293 	 -1.692901 	 5.679596 
H 	 -1.041276 	 0.804501 	 -5.430648 
H 	 -1.639362 	 -0.588488 	 -4.999432 
H 	 -6.059066 	 -0.480301 	 2.123248 
H 	 -5.578443 	 0.820182 	 1.332587 
H 	 -4.238362 	 -2.114878 	 4.671705 
H 	 -3.756411 	 -1.489223 	 6.086016 
H 	 -4.831910 	 5.404320 	 4.555409 
H 	 -3.898260 	 4.677125 	 3.392819 
H 	 -5.208374 	 -5.241050 	 -7.337219 
H 	 -5.709649 	 -4.803807 	 6.220728 
H 	 -3.840916 	 3.270945 	 7.089681 
H 	 -3.276607 	 3.414487 	 5.712953 
H 	 -6.302208 	 -1.055962 	 -4.659998 
H 	 -4.854715 	 -1.313688 	 -4.167753 
H 	 -1.153174 	 2.846963 	 -3.761445 
H 	 -5.077310 	 2.248817 	 -0.470457 
H 	 6.741793 	 -5.086941 	 6.387759 
H 	 6.106087 	 -6.485402 	 6.530947 
H 	 2.464847 	 -5.357270 	 -7.024780 
H 	 1.250392 	 -4.682420 	 7.278541 
H 	 0.304124 	 2.184317 	 3.860817 
H 	 0.446096 	 2.046429 	 2.384341 
H 	 -3.156944 	 -6.570957 	 -1.930630 
H 	 -3.034582 	 -5.955048 	 -3.351012 
H 	 -4.795566 	 3.276337 	 0.636470 
O 	 5.042274 	 -6.520401 	 -3.502166 
O 	 2.047333 	 4.706802 	 1.490804 
O 	 6.843777 	 -7.317095 	 3.018563 
O 	 2.908238 	 -6.541997 	 -5.598967 
O 	 5.904023 	 6.689836 	 6.421283 
O 	 4.004350 	 6.019883 	 4.356259 
O 	 -6.663786 	 4.168208 	 -4.986076 
O 	 6.008169 	 -0.375179 	 4.339245 
O 	 -6.728135 	 5.636604 	 -0.348056 
O 	 7.225855 	 -2.614159 	 5.174270 
O 	 0.553871 	 -5.960182 	 -4.016785 
O 	 -6.224302 	 0.485330 	 4.903525 
O 	 -0.478425 	 -2.244701 	 4.995567 
O 	 4.118101 	 0.430278 	 6.316867 
O 	 -3.000160 	 -6.214471 	 -0.126671 
O 	 3.928338 	 -6.106232 	 4.518981 
O 	 -0.036526 	 5.530912 	 3.787425 
O 	 6.632958 	 2.873126 	 0.387134 
O 	 -5.553844 	 1.907419 	 -2.069857 
O 	 -1.997772 	 1.080200 	 -0.930046 
O 	 -5.137422 	 -4.510993 	 -1.707805 
O 	 -1.068788 	 -1.625714 	 -0.745511 
O 	 4.440683 	 5.412220 	 -3.762394 
O 	 6.735091 	 -5.463441 	 -5.328206 
O 	 -0.962512 	 4.161281 	 -7.186327 
O 	 -2.238351 	 -5.832941 	 3.913436 
O 	 -4.810017 	 -3.172573 	 3.252848 
O 	 -2.354428 	 -4.149346 	 -2.652006 
O 	 4.948146 	 -2.883697 	 0.999941 
O 	 4.062098 	 2.528328 	 -1.459381 
O 	 1.159495 	 -6.925395 	 2.798118 
O 	 4.397847 	 2.965357 	 5.613752 
O 	 2.878883 	 7.063486 	 -1.321073 
O 	 5.233559 	 0.161455 	 1.440017 
O 	 5.691273 	 4.676904 	 -6.444530 
O 	 1.501760 	 5.174492 	 -4.221491 
O 	 6.487497 	 3.923639 	 -2.666878 
O 	 -1.736318 	 5.373733 	 -0.705090 
O 	 -2.216343 	 2.227623 	 4.940247 
O 	 1.750670 	 -0.764256 	 2.348264 
O 	 -2.929181 	 -3.650069 	 1.223738 
O 	 1.190700 	 1.465176 	 6.425621 
O 	 7.302731 	 -2.224467 	 -6.963513 
O 	 3.624323 	 -6.507021 	 1.708972 
O 	 -2.807026 	 0.070584 	 2.902573 
O 	 -0.797496 	 6.618469 	 -3.139856 
O 	 6.787972 	 -4.622987 	 2.119474 
O 	 -7.004721 	 -1.838057 	 2.305843 
O 	 -4.280358 	 3.235703 	 -3.935885 
O 	 7.578706 	 0.615150 	 -4.089115 
O 	 -6.455967 	 7.205989 	 -5.832496 
O 	 -0.320044 	 -2.565578 	 1.656991 
O 	 1.580288 	 2.673982 	 -2.659297 
O 	 -0.767105 	 -1.667938 	 -3.873363 
O 	 -2.215099 	 4.390827 	 2.200703 
O 	 1.664293 	 -4.804958 	 4.426747 
O 	 5.495789 	 6.132614 	 -0.182841 
O 	 -0.135113 	 -4.794256 	 -1.127425 
O 	 -0.156789 	 -7.167112 	 0.222581 
O 	 -1.114341 	 1.935447 	 1.584049 
O 	 -3.499059 	 -2.476179 	 -7.220143 
O 	 -1.061169 	 -0.174908 	 6.632863 
O 	 2.967005 	 -4.473728 	 -0.134037 
O 	 -4.701179 	 -1.814615 	 -0.437188 
O 	 -6.220686 	 -5.962802 	 0.431519 
O 	 -3.816398 	 1.842766 	 -6.845215 
O 	 -3.739999 	 -5.780643 	 -6.654977 
O 	 5.686746 	 1.755356 	 -6.683378 
O 	 5.901820 	 -5.343754 	 -1.076440 
O 	 -4.434712 	 5.440894 	 -2.188632 
O 	 -5.541308 	 -4.299434 	 -4.588734 
O 	 3.712662 	 -2.566060 	 3.383281 
O 	 -6.607257 	 2.468582 	 3.070527 
O 	 -0.446797 	 -7.470893 	 5.968997 
O 	 -6.619051 	 4.357311 	 6.765362 
O 	 -6.117313 	 6.902879 	 5.809878 
O 	 0.021226 	 2.202717 	 -5.354154 
O 	 1.048600 	 5.164346 	 -1.061971 
O 	 4.539594 	 -2.407025 	 -5.622572 
O 	 -3.216036 	 6.670889 	 7.432002 
O 	 -4.272261 	 -0.319776 	 -2.743537 
O 	 3.677152 	 2.390976 	 1.798055 
O 	 -6.586753 	 0.796933 	 -7.375852 
O 	 -5.331027 	 -5.986434 	 4.075378 
O 	 6.682883 	 4.083946 	 4.521937 
O 	 2.943537 	 1.038701 	 -5.436120 
O 	 -0.495826 	 -4.555453 	 6.362557 
O 	 1.506497 	 -0.032582 	 -2.937323 
O 	 2.695780 	 -3.466805 	 -3.207129 
O 	 2.827985 	 -0.286610 	 -0.696384 
O 	 -2.648611 	 5.354384 	 -4.942289 
O 	 1.529834 	 -1.652050 	 -5.245734 
O 	 2.040170 	 4.544296 	 5.906694 
O 	 -5.667593 	 6.817362 	 1.931950 
O 	 5.262050 	 -0.779300 	 -3.364023 
O 	 2.349976 	 5.944382 	 -6.849113 
O 	 -1.326649 	 -4.363771 	 -5.786853 
O 	 2.234208 	 -1.710048 	 6.150930 
O 	 -1.729610 	 0.118192 	 -5.691180 
O 	 -5.281373 	 -0.114646 	 1.636317 
O 	 -3.934345 	 -1.275453 	 5.147468 
O 	 -4.837567 	 4.848756 	 3.735725 
O 	 -5.977973 	 -4.840174 	 7.179194 
O 	 -3.788164 	 3.949685 	 6.355078 
O 	 -5.495715 	 -1.641999 	 -4.885715 
O 	 -1.684916 	 3.174131 	 -2.992700 
O 	 5.879940 	 -5.521524 	 6.425763 
O 	 2.164543 	 -4.479253 	 -7.345277 
O 	 1.017317 	 1.965594 	 3.210355 
O 	 -3.181096 	 -6.820440 	 -2.928135 
O 	 -4.673737 	 2.314296 	 0.451680 
K 	 5.175560 	 4.949907 	 2.076293 
