333
conformation = 42
H 	 4.972570 	 -7.430841 	 -3.350778 
H 	 4.903192 	 -6.188456 	 -2.574045 
H 	 1.396183 	 4.473118 	 2.144596 
H 	 2.623778 	 4.015935 	 1.225847 
H 	 6.709882 	 -7.443030 	 4.072755 
H 	 6.533578 	 -6.345823 	 3.013494 
H 	 2.231084 	 -6.233887 	 -4.954772 
H 	 3.744020 	 -6.559484 	 -4.985718 
H 	 5.860772 	 6.141187 	 7.148851 
H 	 5.378239 	 6.188303 	 5.708656 
H 	 3.186685 	 5.609670 	 4.652862 
H 	 3.734721 	 7.018146 	 4.387510 
H 	 -5.856358 	 3.956447 	 -4.562262 
H 	 -6.455977 	 5.227334 	 -5.088337 
H 	 5.353759 	 -0.151145 	 5.050501 
H 	 6.911287 	 -0.036765 	 4.509160 
H 	 -6.072743 	 5.783711 	 -1.087187 
H 	 -6.475830 	 6.307383 	 0.334999 
H 	 6.853643 	 -1.831445 	 4.646579 
H 	 -6.791069 	 -2.782743 	 4.909119 
H 	 -0.039864 	 -6.575472 	 -3.804488 
H 	 -0.071315 	 -5.301590 	 -4.638427 
H 	 -5.432034 	 -0.006651 	 4.890953 
H 	 -6.308464 	 1.285576 	 4.236410 
H 	 -0.885162 	 -2.100795 	 4.097848 
H 	 -0.865597 	 -1.453683 	 5.511428 
H 	 3.443165 	 -0.318861 	 6.714528 
H 	 4.753696 	 0.688741 	 6.976570 
H 	 -2.021904 	 -6.493130 	 0.004036 
H 	 -2.954132 	 -5.332325 	 0.319604 
H 	 3.137514 	 -5.593086 	 4.713691 
H 	 4.659368 	 -5.659475 	 4.893267 
H 	 0.224286 	 6.452183 	 3.317845 
H 	 -0.938411 	 5.405435 	 3.186923 
H 	 7.305902 	 3.089711 	 0.932973 
H 	 6.487311 	 1.928169 	 0.465173 
H 	 -5.105235 	 2.495446 	 -2.975912 
H 	 -6.429110 	 1.769577 	 -2.499400 
H 	 -2.998944 	 1.444034 	 -0.678151 
H 	 -1.894695 	 1.682826 	 -1.738289 
H 	 -5.473710 	 -4.402092 	 -2.754267 
H 	 -5.363909 	 -3.523200 	 -1.443641 
H 	 -1.605711 	 -0.745859 	 -1.022680 
H 	 -1.691336 	 -2.256280 	 -1.175405 
H 	 4.704972 	 4.769618 	 -3.252759 
H 	 3.378621 	 5.357337 	 -3.787212 
H 	 6.133320 	 -5.415794 	 -6.226023 
H 	 6.128746 	 -5.725486 	 -4.696221 
H 	 -1.635740 	 4.054836 	 7.005540 
H 	 -1.725582 	 4.606939 	 -6.548641 
H 	 -2.286241 	 -6.648864 	 4.339435 
H 	 -3.099139 	 -5.612159 	 3.480898 
H 	 -4.137075 	 -3.175560 	 2.527136 
H 	 -4.977932 	 -4.108267 	 3.412224 
H 	 -1.746965 	 -4.409729 	 -1.911888 
H 	 -3.267381 	 -4.094922 	 -2.353030 
H 	 4.173295 	 -2.893228 	 0.406717 
H 	 4.569629 	 -2.847994 	 1.864975 
H 	 4.836751 	 2.407633 	 -1.900883 
H 	 4.206261 	 3.176492 	 -0.702447 
H 	 1.082729 	 -6.102814 	 3.381962 
H 	 1.986205 	 -6.723931 	 2.406278 
H 	 4.117284 	 2.084055 	 5.802071 
H 	 3.639616 	 3.584586 	 5.834424 
H 	 3.037280 	 7.152699 	 -0.390950 
H 	 2.332410 	 6.384082 	 -1.517685 
H 	 4.764486 	 -0.498672 	 0.966860 
H 	 5.521023 	 -0.119247 	 2.375492 
H 	 6.405614 	 4.390354 	 -6.081098 
H 	 5.072959 	 4.938438 	 -5.631804 
H 	 1.403142 	 4.349445 	 -3.796009 
H 	 0.625755 	 5.712283 	 -4.024432 
H 	 7.010444 	 3.648926 	 -1.955107 
H 	 7.052502 	 4.240169 	 -3.443888 
H 	 -2.710289 	 5.517981 	 -0.941488 
H 	 -1.647111 	 4.536801 	 -1.152926 
H 	 -1.993789 	 1.498366 	 5.514270 
H 	 -2.414077 	 1.735277 	 4.085693 
H 	 1.519795 	 0.186764 	 2.836728 
H 	 0.901761 	 -1.090270 	 2.166317 
H 	 -3.327364 	 -2.823922 	 0.545680 
H 	 -2.156495 	 -3.371894 	 1.447830 
H 	 1.321629 	 2.510482 	 6.354504 
H 	 1.972503 	 1.162883 	 6.624288 
H 	 7.324470 	 -2.326625 	 6.887291 
H 	 -7.214585 	 -2.801743 	 -6.537665 
H 	 4.001947 	 -6.318991 	 2.440063 
H 	 3.510636 	 -5.724692 	 1.037475 
H 	 -2.979042 	 -0.282726 	 3.808186 
H 	 -3.578848 	 0.034814 	 2.470963 
H 	 -0.585250 	 6.216558 	 -2.255880 
H 	 -1.647947 	 7.170944 	 -2.993397 
H 	 6.121207 	 -4.059054 	 1.370890 
H 	 7.512496 	 -4.907555 	 1.411148 
H 	 -6.404584 	 -2.609907 	 2.299603 
H 	 7.083363 	 -2.261376 	 1.886410 
H 	 -2.679174 	 3.116709 	 -3.372519 
H 	 -4.236811 	 2.889811 	 -4.882859 
H 	 6.584742 	 0.190677 	 -3.968438 
H 	 7.386794 	 1.301190 	 -4.862705 
H 	 -5.694409 	 -7.130077 	 -5.893094 
H 	 -7.230448 	 -7.071925 	 -5.959184 
H 	 0.109389 	 -3.361821 	 1.714439 
H 	 -0.448763 	 -2.111408 	 0.737081 
H 	 1.313881 	 1.817337 	 -2.890624 
H 	 2.431155 	 2.513037 	 -2.072174 
H 	 -0.095696 	 -1.135313 	 -3.402729 
H 	 -1.273530 	 -2.315320 	 -3.358877 
H 	 -1.871215 	 3.570304 	 1.904290 
H 	 -2.128428 	 5.037028 	 1.271603 
H 	 1.850529 	 -3.837050 	 4.255261 
H 	 0.746893 	 -4.689706 	 5.029706 
H 	 5.020334 	 6.652677 	 -0.838043 
H 	 6.415321 	 5.896305 	 -0.613838 
H 	 0.011556 	 -5.705134 	 -0.858661 
H 	 0.396279 	 -4.732567 	 -2.023835 
H 	 -0.382177 	 6.839245 	 -0.032069 
H 	 0.131873 	 -7.063387 	 1.138054 
H 	 -1.448918 	 1.615186 	 0.628407 
H 	 -1.682831 	 1.309745 	 2.135528 
H 	 -3.855688 	 -1.998773 	 -6.535837 
H 	 -4.036122 	 -3.337821 	 -7.449244 
H 	 -0.367993 	 0.435911 	 6.623852 
H 	 -1.346481 	 -0.179370 	 -7.297066 
H 	 3.089375 	 -4.311752 	 -1.164511 
H 	 2.042930 	 -4.407820 	 0.033151 
H 	 -5.277828 	 -1.302475 	 0.162942 
H 	 -4.848577 	 -1.316090 	 -1.334426 
H 	 -5.708812 	 -5.858312 	 -0.521356 
H 	 -5.745273 	 -6.400886 	 0.904390 
H 	 -4.772947 	 1.525971 	 -6.893906 
H 	 -3.291951 	 1.125127 	 -6.781077 
H 	 -3.113592 	 -5.229241 	 -6.157057 
H 	 -3.525083 	 -6.591931 	 -6.947959 
H 	 6.633466 	 1.445138 	 -6.945622 
H 	 5.504059 	 2.633696 	 -6.950326 
H 	 5.492100 	 -4.711428 	 -0.439515 
H 	 6.583030 	 -5.761018 	 -0.797913 
H 	 -4.490672 	 4.692038 	 -2.809276 
H 	 -4.431723 	 6.305791 	 -2.735746 
H 	 -6.438559 	 -4.643750 	 -4.876165 
H 	 -5.666080 	 -3.230409 	 -4.781562 
H 	 3.190176 	 -1.731706 	 3.273241 
H 	 4.493930 	 -2.135495 	 3.874578 
H 	 -5.883621 	 2.997646 	 3.084597 
H 	 7.534545 	 3.106677 	 3.557927 
H 	 -0.374080 	 6.569285 	 5.375427 
H 	 -0.816641 	 7.179452 	 6.782786 
H 	 -5.653922 	 4.313531 	 6.587922 
H 	 -6.799262 	 4.505927 	 -7.263679 
H 	 -5.686597 	 6.788714 	 6.594349 
H 	 -7.038367 	 6.696353 	 6.068902 
H 	 0.896902 	 2.083620 	 -5.469178 
H 	 -0.330874 	 2.773770 	 -6.118703 
H 	 0.821354 	 4.450400 	 -1.650694 
H 	 1.318465 	 4.839570 	 -0.203209 
H 	 5.388004 	 -2.474255 	 -6.259517 
H 	 4.620270 	 -3.129365 	 -5.015328 
H 	 -3.224469 	 6.180479 	 -6.677171 
H 	 -3.371071 	 5.975971 	 6.750826 
H 	 -4.933149 	 0.571278 	 -2.577070 
H 	 -3.514459 	 -0.026609 	 -2.558172 
H 	 4.147524 	 1.732509 	 1.638946 
H 	 2.980738 	 2.310972 	 2.611798 
H 	 -6.393003 	 0.838886 	 6.524582 
H 	 -6.772297 	 -0.060767 	 -7.232157 
H 	 -5.315420 	 -6.531055 	 3.215680 
H 	 -5.849319 	 -6.513249 	 4.692079 
H 	 5.773259 	 3.904770 	 4.981169 
H 	 7.265903 	 4.366795 	 5.238853 
H 	 3.764201 	 1.307068 	 -5.798101 
H 	 2.811428 	 0.098015 	 -5.733433 
H 	 -0.779916 	 -3.723935 	 5.849278 
H 	 -1.120992 	 -5.298394 	 5.786964 
H 	 1.902905 	 -0.276819 	 -2.268642 
H 	 2.266077 	 0.201296 	 -3.562437 
H 	 2.342725 	 -2.843292 	 -3.855439 
H 	 2.582947 	 -4.398900 	 -3.610756 
H 	 3.194259 	 0.705019 	 -0.740651 
H 	 2.228795 	 -0.148862 	 -0.018663 
H 	 -1.946588 	 5.833403 	 -4.393598 
H 	 -3.042807 	 4.650173 	 -4.425737 
H 	 0.504661 	 -1.743430 	 -5.119292 
H 	 1.731463 	 -2.366815 	 -5.956046 
H 	 1.282700 	 4.954224 	 5.225641 
H 	 1.991004 	 5.223746 	 6.640404 
H 	 -5.511695 	 6.250054 	 2.608877 
H 	 -6.658963 	 7.392221 	 2.305364 
H 	 4.987182 	 -1.426173 	 -2.847842 
H 	 4.977417 	 -1.033662 	 -4.313180 
H 	 1.944022 	 5.513053 	 -6.114542 
H 	 2.421582 	 6.861381 	 -6.539950 
H 	 -1.018922 	 -4.259917 	 -6.689638 
H 	 -1.463950 	 -3.396500 	 -5.449220 
H 	 2.208051 	 -2.484092 	 6.578727 
H 	 1.261166 	 -1.695615 	 5.647484 
H 	 -1.157980 	 1.004525 	 -5.605142 
H 	 -1.516124 	 -0.433477 	 -5.046688 
H 	 -6.193014 	 -0.541502 	 1.773341 
H 	 -5.398586 	 0.812141 	 1.238562 
H 	 -4.323608 	 -1.934811 	 4.502026 
H 	 -3.935771 	 -1.649595 	 6.001378 
H 	 -4.704227 	 5.166601 	 4.577362 
H 	 -3.949709 	 4.804253 	 3.364511 
H 	 -5.201068 	 -5.163695 	 -7.372065 
H 	 -5.671107 	 -4.749986 	 6.137209 
H 	 -3.887821 	 3.350078 	 6.956488 
H 	 -3.505160 	 3.541693 	 5.469292 
H 	 -6.392518 	 -1.004718 	 -4.865602 
H 	 -5.153678 	 -1.227584 	 -4.053977 
H 	 -1.131038 	 3.436112 	 -3.642721 
H 	 -5.121877 	 2.388201 	 -0.526233 
H 	 6.573087 	 -4.886378 	 6.299249 
H 	 6.096476 	 -6.423585 	 6.389611 
H 	 2.456677 	 -5.147871 	 -6.942402 
H 	 1.273142 	 -4.612112 	 6.984896 
H 	 0.490141 	 2.015516 	 3.974584 
H 	 0.346856 	 2.001380 	 2.418653 
H 	 -3.391638 	 -6.277569 	 -2.135473 
H 	 -3.389370 	 -5.970779 	 -3.533850 
H 	 -4.474389 	 3.193454 	 0.714476 
O 	 5.009119 	 -6.467574 	 -3.531278 
O 	 1.951518 	 4.727295 	 1.353512 
O 	 6.782511 	 -7.317717 	 3.119603 
O 	 2.959799 	 -6.486139 	 -5.544218 
O 	 5.881995 	 6.720985 	 6.348902 
O 	 3.969126 	 6.040698 	 4.319383 
O 	 -6.634203 	 4.259631 	 -5.074875 
O 	 5.985524 	 -0.275366 	 4.285344 
O 	 -6.736149 	 5.702671 	 -0.368413 
O 	 7.202149 	 -2.605188 	 5.168680 
O 	 0.535298 	 -5.838812 	 -4.085420 
O 	 -6.253788 	 0.525278 	 4.904635 
O 	 -0.582428 	 -2.235227 	 4.986387 
O 	 4.051969 	 0.376173 	 6.334345 
O 	 -2.963245 	 -6.235685 	 -0.041284 
O 	 3.906612 	 -6.133488 	 4.496941 
O 	 -0.097378 	 5.616131 	 3.713101 
O 	 6.538639 	 2.891588 	 0.385045 
O 	 -5.558773 	 1.942683 	 -2.182670 
O 	 -2.125383 	 1.122502 	 -1.005890 
O 	 -5.117696 	 -4.425119 	 -1.802876 
O 	 -1.108663 	 -1.579198 	 -0.905137 
O 	 4.354799 	 5.432747 	 -3.806043 
O 	 6.682015 	 -5.366487 	 -5.422342 
O 	 -1.066183 	 4.232451 	 -7.116874 
O 	 -2.228153 	 -5.750593 	 3.887929 
O 	 -4.880523 	 -3.115930 	 3.229695 
O 	 -2.331868 	 -4.163212 	 -2.699812 
O 	 4.959248 	 -2.791530 	 0.987452 
O 	 4.004570 	 2.552876 	 -1.408720 
O 	 1.062200 	 -6.860783 	 2.811740 
O 	 4.410508 	 2.973552 	 5.549391 
O 	 2.935799 	 7.148134 	 -1.366487 
O 	 5.255751 	 0.185031 	 1.445160 
O 	 5.549602 	 4.674180 	 -6.496781 
O 	 1.450379 	 5.213306 	 -4.277020 
O 	 6.444131 	 3.974590 	 -2.703653 
O 	 -1.795430 	 5.351379 	 -0.647700 
O 	 -2.214745 	 2.287617 	 4.880551 
O 	 1.760980 	 -0.633525 	 2.319350 
O 	 -3.081457 	 -3.563205 	 1.099961 
O 	 1.108274 	 1.581809 	 6.381847 
O 	 7.290313 	 -2.061949 	 -7.009903 
O 	 3.559583 	 -6.518713 	 1.598640 
O 	 -2.708117 	 0.067092 	 2.904796 
O 	 -0.834348 	 6.636136 	 -3.115404 
O 	 6.734631 	 -4.566468 	 1.994529 
O 	 -7.044402 	 -1.831296 	 2.248606 
O 	 -4.288018 	 3.263021 	 -3.989724 
O 	 7.497348 	 0.646297 	 -4.160554 
O 	 -6.475533 	 7.190924 	 -5.814006 
O 	 -0.377962 	 -2.516066 	 1.641595 
O 	 1.681856 	 2.703226 	 -2.680733 
O 	 -0.834683 	 -1.620569 	 -3.939602 
O 	 -2.294453 	 4.455370 	 2.089795 
O 	 1.590478 	 -4.747413 	 4.421833 
O 	 5.529715 	 6.095169 	 -0.235935 
O 	 -0.146389 	 -4.764820 	 -1.187373 
O 	 -0.155376 	 -7.119112 	 0.161326 
O 	 -1.201307 	 1.958555 	 1.515206 
O 	 -3.560586 	 -2.489031 	 -7.344696 
O 	 -1.082750 	 -0.199581 	 6.605467 
O 	 3.004468 	 -4.387881 	 -0.207571 
O 	 -4.729873 	 -1.825748 	 -0.498039 
O 	 -6.267688 	 -5.851728 	 0.274213 
O 	 -3.868145 	 1.932172 	 -6.927456 
O 	 -3.791404 	 -5.688308 	 -6.693103 
O 	 5.667848 	 1.671075 	 -6.812107 
O 	 5.820830 	 -5.290168 	 -1.185843 
O 	 -4.587454 	 5.478114 	 -2.191840 
O 	 -5.616419 	 -4.206511 	 -4.623456 
O 	 3.724779 	 -2.529341 	 3.337120 
O 	 -6.761134 	 2.529239 	 3.002181 
O 	 -0.391248 	 -7.476237 	 5.904072 
O 	 -6.650549 	 4.388015 	 6.669971 
O 	 -6.153960 	 6.976541 	 5.756880 
O 	 -0.013665 	 2.264087 	 -5.312129 
O 	 1.057977 	 5.183045 	 -1.073373 
O 	 4.565859 	 -2.368861 	 -5.690629 
O 	 -3.202926 	 6.702954 	 7.383703 
O 	 -4.423039 	 -0.276949 	 -2.821081 
O 	 3.597571 	 2.525221 	 1.879348 
O 	 -6.532656 	 0.866520 	 -7.394562 
O 	 -5.404133 	 -5.907206 	 4.024708 
O 	 6.612826 	 4.080605 	 4.499213 
O 	 2.843874 	 1.053235 	 -5.502576 
O 	 -0.578174 	 -4.603894 	 6.218478 
O 	 1.415280 	 0.013251 	 -3.089071 
O 	 2.724695 	 -3.509012 	 -3.218670 
O 	 2.851216 	 -0.223042 	 -0.750762 
O 	 -2.716322 	 5.446290 	 -4.922240 
O 	 1.490514 	 -1.709784 	 -5.283785 
O 	 1.958333 	 4.591082 	 5.826523 
O 	 -5.813835 	 6.899563 	 1.894469 
O 	 5.259795 	 -0.719361 	 -3.439493 
O 	 2.370173 	 5.947155 	 -6.901825 
O 	 -1.284532 	 -4.326196 	 -5.752752 
O 	 2.164185 	 -1.680785 	 6.048302 
O 	 -1.774470 	 0.229443 	 -5.718265 
O 	 -5.320769 	 -0.043710 	 1.606327 
O 	 -4.038880 	 -1.234199 	 5.106927 
O 	 -4.867983 	 4.875001 	 3.664988 
O 	 -6.008701 	 -4.802462 	 7.028629 
O 	 -3.800836 	 4.065794 	 6.254867 
O 	 -5.610942 	 -1.543688 	 -4.861990 
O 	 -1.767819 	 3.183869 	 -2.952975 
O 	 5.800024 	 -5.495570 	 6.374233 
O 	 2.130515 	 -4.399616 	 7.421146 
O 	 0.975817 	 2.006545 	 3.153431 
O 	 -3.239098 	 -6.753055 	 -2.940209 
O 	 -4.652579 	 2.318615 	 0.333569 
K 	 5.155998 	 5.008204 	 2.005239 
