333
conformation = 56
H 	 4.889150 	 -7.487281 	 -3.510058 
H 	 5.075744 	 -6.177801 	 -2.559979 
H 	 1.383741 	 4.452622 	 2.207266 
H 	 2.518292 	 3.849601 	 1.365743 
H 	 6.592519 	 7.343398 	 3.999527 
H 	 6.633785 	 -6.354369 	 2.901741 
H 	 2.083339 	 -6.381254 	 -5.059447 
H 	 3.547905 	 -6.700749 	 -4.844984 
H 	 5.744561 	 6.110450 	 7.213731 
H 	 5.253150 	 6.315554 	 5.727024 
H 	 3.239973 	 5.535651 	 4.770115 
H 	 3.830379 	 7.006188 	 4.402959 
H 	 -5.785078 	 3.904270 	 -4.658888 
H 	 -6.656164 	 5.162517 	 -5.106350 
H 	 5.452171 	 0.079219 	 5.071225 
H 	 6.900466 	 -0.117462 	 4.616645 
H 	 -6.028265 	 5.545823 	 -0.965962 
H 	 -6.323987 	 5.953590 	 0.508425 
H 	 6.845967 	 -1.836543 	 4.693592 
H 	 -6.863643 	 -2.723140 	 4.761377 
H 	 0.073322 	 -6.788114 	 -3.775541 
H 	 -0.032919 	 -5.429240 	 -4.669042 
H 	 -5.451105 	 -0.027876 	 4.724856 
H 	 -6.240968 	 1.233652 	 4.234641 
H 	 -0.872730 	 -2.197141 	 4.117311 
H 	 -0.998742 	 -1.547694 	 5.532832 
H 	 3.562736 	 -0.450367 	 6.579136 
H 	 4.641609 	 0.591792 	 7.135303 
H 	 -2.074496 	 -6.499186 	 0.102729 
H 	 -3.052713 	 -5.294950 	 0.125780 
H 	 3.093530 	 -5.736901 	 4.936187 
H 	 4.626953 	 -5.777647 	 5.082121 
H 	 0.386544 	 6.300149 	 3.329332 
H 	 -0.964298 	 5.405403 	 3.268218 
H 	 7.355592 	 3.106694 	 0.889547 
H 	 6.518894 	 1.924003 	 0.613202 
H 	 -5.043570 	 2.509635 	 -2.779431 
H 	 -6.449632 	 1.868081 	 -2.483563 
H 	 -2.903898 	 1.508547 	 -0.609907 
H 	 -1.754271 	 1.681629 	 -1.608303 
H 	 -5.494470 	 -4.441725 	 -2.677647 
H 	 -5.584809 	 -3.761302 	 -1.212078 
H 	 -1.446861 	 -0.724785 	 -0.863560 
H 	 -1.761941 	 -2.188467 	 -1.155510 
H 	 4.723126 	 4.671209 	 -3.244033 
H 	 3.410187 	 5.338463 	 -3.680685 
H 	 6.157103 	 -5.124808 	 -6.084153 
H 	 6.055375 	 -5.769461 	 -4.620726 
H 	 -1.652942 	 3.763764 	 7.121201 
H 	 -1.546650 	 4.559265 	 -6.429012 
H 	 -2.296689 	 -6.665038 	 4.475487 
H 	 -3.201215 	 -5.635085 	 3.710012 
H 	 -4.117120 	 -3.240628 	 2.590994 
H 	 -5.126357 	 -4.033618 	 3.641891 
H 	 -1.663323 	 -4.578133 	 -2.083689 
H 	 -3.243191 	 -4.276810 	 -2.163771 
H 	 4.116659 	 -3.112293 	 0.495997 
H 	 4.557439 	 -2.865186 	 1.929842 
H 	 4.867605 	 2.390618 	 -1.883913 
H 	 4.326138 	 3.065080 	 -0.696688 
H 	 1.023608 	 -6.152354 	 3.405582 
H 	 2.026038 	 -6.887265 	 2.426448 
H 	 4.065134 	 2.094831 	 5.944160 
H 	 3.664478 	 3.612509 	 5.844762 
H 	 3.037559 	 7.110968 	 -0.353759 
H 	 2.190683 	 6.364053 	 -1.401995 
H 	 4.786878 	 -0.639891 	 1.065582 
H 	 5.484070 	 -0.220844 	 2.378455 
H 	 6.493271 	 4.373623 	 -6.085617 
H 	 5.104323 	 5.081551 	 -5.714483 
H 	 1.542035 	 4.320911 	 -3.666646 
H 	 0.728584 	 5.747911 	 -3.827864 
H 	 7.016025 	 3.699468 	 -1.897675 
H 	 6.997596 	 3.954857 	 -3.474825 
H 	 -2.695780 	 5.641415 	 -0.811098 
H 	 -1.697208 	 4.547960 	 -1.209259 
H 	 -1.704732 	 1.512405 	 5.422071 
H 	 -2.453098 	 1.926902 	 4.046883 
H 	 1.338407 	 -0.111835 	 3.020333 
H 	 1.072732 	 -1.437488 	 2.250074 
H 	 -3.327896 	 -3.006603 	 0.523541 
H 	 -2.182554 	 -3.193308 	 1.523366 
H 	 1.283334 	 2.430544 	 6.283887 
H 	 2.049735 	 1.094470 	 6.548262 
H 	 7.190827 	 -2.685446 	 7.058195 
H 	 -7.058072 	 -2.772193 	 -6.446201 
H 	 3.968341 	 -6.396122 	 2.559929 
H 	 3.730505 	 -5.685377 	 1.227406 
H 	 -3.068116 	 -0.390639 	 3.754704 
H 	 -3.564265 	 -0.013969 	 2.320928 
H 	 -0.618835 	 6.002799 	 -2.337721 
H 	 -1.637710 	 7.127415 	 -2.804048 
H 	 6.280295 	 -4.283374 	 1.272371 
H 	 -7.288995 	 -4.956368 	 1.694895 
H 	 -6.491690 	 -2.639412 	 2.543821 
H 	 7.079817 	 -2.140859 	 1.839062 
H 	 -2.706992 	 3.077882 	 -3.320254 
H 	 -4.219249 	 2.725215 	 -4.768956 
H 	 6.580616 	 0.548096 	 -3.739196 
H 	 7.462527 	 1.286108 	 -4.794159 
H 	 -5.660333 	 -7.212409 	 -5.778375 
H 	 -7.168343 	 -6.985088 	 -5.873955 
H 	 0.287175 	 -3.256300 	 1.781496 
H 	 -0.270766 	 -2.368263 	 0.697858 
H 	 1.431783 	 1.657026 	 -2.800038 
H 	 2.487825 	 2.695364 	 -2.275021 
H 	 -0.087776 	 -1.219814 	 -3.331855 
H 	 -1.135286 	 -2.460219 	 -3.384147 
H 	 -1.727959 	 3.599232 	 2.023839 
H 	 -2.231702 	 4.794097 	 1.277747 
H 	 1.752776 	 -3.908307 	 4.103111 
H 	 0.877537 	 -4.772584 	 5.146738 
H 	 4.889477 	 6.530856 	 -0.844435 
H 	 6.404195 	 6.047655 	 -0.539469 
H 	 -0.000497 	 -5.634368 	 -0.611410 
H 	 0.305840 	 -4.948952 	 -1.991237 
H 	 0.017601 	 6.802388 	 -0.061962 
H 	 0.180570 	 -7.065665 	 1.152119 
H 	 -1.358036 	 1.556358 	 0.657972 
H 	 -1.647985 	 1.304621 	 2.189472 
H 	 -4.049935 	 -2.051456 	 -6.510117 
H 	 -4.238764 	 -3.201913 	 -7.320441 
H 	 -0.271618 	 0.307155 	 6.643635 
H 	 -1.340327 	 -0.304296 	 -7.283223 
H 	 2.930997 	 -4.106696 	 -1.040559 
H 	 1.990577 	 -4.319850 	 0.039876 
H 	 -5.128881 	 -1.287148 	 0.337278 
H 	 -4.834050 	 -1.304521 	 -1.284398 
H 	 -5.739763 	 -5.674206 	 -0.405682 
H 	 -5.760934 	 -6.633702 	 0.836157 
H 	 -4.786082 	 1.569830 	 -6.853807 
H 	 -3.301600 	 1.119130 	 -6.492907 
H 	 -3.160551 	 -5.269090 	 -6.081366 
H 	 -3.407786 	 -6.654402 	 -6.896147 
H 	 6.562792 	 1.484138 	 -7.096066 
H 	 5.520420 	 2.652127 	 -6.944278 
H 	 5.432235 	 -4.786524 	 -0.385822 
H 	 6.683035 	 -5.657354 	 -0.735302 
H 	 -4.235075 	 4.746815 	 -2.804086 
H 	 -4.345881 	 6.243850 	 -2.728692 
H 	 -6.484311 	 -4.546014 	 -4.865925 
H 	 -5.709067 	 -3.276166 	 -4.548096 
H 	 3.147828 	 -1.813847 	 3.127169 
H 	 4.373187 	 -2.305175 	 4.070502 
H 	 -5.824347 	 2.942974 	 3.154060 
H 	 7.591832 	 2.993360 	 3.709415 
H 	 -0.468267 	 6.639414 	 5.327997 
H 	 -0.987881 	 7.116929 	 6.761967 
H 	 -5.710866 	 4.249691 	 6.450288 
H 	 -6.629304 	 4.385028 	 -7.173910 
H 	 -5.645660 	 7.033122 	 6.630941 
H 	 -7.096786 	 6.895274 	 6.060669 
H 	 0.901792 	 2.010587 	 -5.466531 
H 	 -0.280582 	 2.810396 	 -6.064977 
H 	 1.125452 	 4.346324 	 -1.545328 
H 	 1.142500 	 4.870254 	 -0.140123 
H 	 5.459695 	 -2.509574 	 -5.963096 
H 	 4.403094 	 -3.233408 	 -5.067226 
H 	 -3.116136 	 6.073740 	 -6.718967 
H 	 -3.517532 	 6.153564 	 6.674909 
H 	 -4.915539 	 0.478222 	 -2.519630 
H 	 -3.434592 	 -0.102787 	 -2.546624 
H 	 4.176862 	 1.611583 	 1.792976 
H 	 2.884523 	 2.094771 	 2.427892 
H 	 -6.387010 	 0.968652 	 6.551145 
H 	 -6.603633 	 -0.157493 	 -7.273570 
H 	 -5.236241 	 -6.298493 	 3.132877 
H 	 -6.009024 	 -6.626864 	 4.514315 
H 	 5.910192 	 3.679199 	 5.119939 
H 	 7.344498 	 4.496299 	 5.130576 
H 	 3.692338 	 1.253474 	 -5.922283 
H 	 2.654367 	 0.101201 	 -5.667237 
H 	 -0.831772 	 -3.766874 	 5.824230 
H 	 -1.144348 	 -5.249401 	 5.876520 
H 	 1.737270 	 -0.356956 	 -2.084393 
H 	 2.160055 	 0.092923 	 -3.651965 
H 	 2.389481 	 -2.730553 	 -3.724892 
H 	 2.562436 	 -4.219496 	 -3.840947 
H 	 3.155098 	 0.652961 	 -0.732368 
H 	 2.209410 	 -0.401546 	 0.052197 
H 	 -2.084199 	 5.712773 	 -4.179154 
H 	 -3.120209 	 4.524910 	 -4.578948 
H 	 0.503806 	 -1.654638 	 -5.021007 
H 	 1.550745 	 -2.522013 	 -5.717667 
H 	 1.234338 	 4.827459 	 5.340272 
H 	 2.019545 	 5.201307 	 6.626548 
H 	 -5.497449 	 6.196836 	 2.642527 
H 	 -6.705800 	 7.087671 	 2.287873 
H 	 4.959751 	 -1.384515 	 -2.695101 
H 	 5.067647 	 -1.232163 	 -4.187940 
H 	 1.967725 	 5.317050 	 -6.196004 
H 	 2.598880 	 6.793201 	 -6.437136 
H 	 -1.331134 	 -4.418255 	 -6.716250 
H 	 -1.336780 	 -3.398940 	 -5.609228 
H 	 2.222168 	 -2.579692 	 6.566731 
H 	 1.295846 	 -1.720281 	 5.679496 
H 	 -1.122732 	 0.852342 	 -5.461657 
H 	 -1.565864 	 -0.537954 	 -5.008776 
H 	 -6.154432 	 -0.496234 	 2.031233 
H 	 -5.536137 	 0.753646 	 1.293356 
H 	 -4.302269 	 -2.046603 	 4.659193 
H 	 -3.910290 	 -1.603500 	 6.102886 
H 	 -4.857361 	 5.316742 	 4.575137 
H 	 -4.023301 	 4.672941 	 3.361751 
H 	 -5.196572 	 -5.279204 	 -7.264220 
H 	 -5.765210 	 -4.745451 	 6.219249 
H 	 -3.931900 	 3.278262 	 7.006524 
H 	 -3.396677 	 3.412885 	 5.634060 
H 	 -6.353107 	 -1.105745 	 -4.706066 
H 	 -5.035856 	 -1.377007 	 -4.093155 
H 	 -1.157258 	 3.116496 	 -3.757395 
H 	 -5.085862 	 2.308020 	 -0.483584 
H 	 6.639856 	 -4.979829 	 6.394132 
H 	 6.105330 	 -6.480888 	 6.435410 
H 	 2.371784 	 -5.339633 	 -6.981431 
H 	 1.215455 	 -4.654543 	 7.138154 
H 	 0.316222 	 2.082891 	 3.890326 
H 	 0.407440 	 2.049732 	 2.381012 
H 	 -3.302081 	 -6.574694 	 -1.964975 
H 	 -3.210003 	 -6.013614 	 -3.518286 
H 	 -4.704949 	 3.243843 	 0.681868 
O 	 5.002777 	 -6.513748 	 -3.491869 
O 	 1.982919 	 4.703779 	 1.453592 
O 	 6.792469 	 -7.334436 	 3.081208 
O 	 2.903263 	 -6.536496 	 -5.561332 
O 	 5.864569 	 6.688923 	 6.414847 
O 	 3.952995 	 6.009294 	 4.364645 
O 	 -6.678178 	 4.181419 	 -4.999477 
O 	 5.968156 	 -0.359672 	 4.332696 
O 	 -6.762271 	 5.650095 	 -0.338319 
O 	 7.182747 	 -2.622307 	 5.191156 
O 	 0.510761 	 -5.934490 	 -4.024676 
O 	 -6.266895 	 0.477978 	 4.930496 
O 	 -0.546092 	 -2.261642 	 5.012303 
O 	 4.062726 	 0.400481 	 6.333433 
O 	 -3.013835 	 -6.237111 	 -0.070316 
O 	 3.883591 	 -6.133852 	 4.527406 
O 	 -0.089343 	 5.543811 	 3.782613 
O 	 6.564122 	 2.867060 	 0.404328 
O 	 -5.586035 	 1.894017 	 -2.094375 
O 	 -2.074513 	 1.076025 	 -0.941247 
O 	 -5.155328 	 -4.496385 	 -1.723796 
O 	 -1.119301 	 -1.624184 	 -0.789597 
O 	 4.381594 	 5.400239 	 -3.755745 
O 	 6.684755 	 -5.446223 	 -5.345028 
O 	 -1.036130 	 4.174596 	 -7.138660 
O 	 -2.265049 	 -5.818833 	 3.920884 
O 	 -4.863077 	 -3.169983 	 3.255785 
O 	 -2.374981 	 -4.182418 	 -2.650151 
O 	 4.924798 	 -2.867946 	 1.018834 
O 	 4.000116 	 2.521076 	 -1.425015 
O 	 1.095725 	 -6.908543 	 2.831250 
O 	 4.375105 	 2.941144 	 5.607871 
O 	 2.866069 	 7.074054 	 -1.319571 
O 	 5.213272 	 0.156624 	 1.456397 
O 	 5.608381 	 4.655002 	 -6.443058 
O 	 1.446936 	 5.175225 	 -4.226787 
O 	 6.444496 	 3.931897 	 -2.660772 
O 	 -1.781172 	 5.349952 	 -0.666607 
O 	 -2.252493 	 2.232053 	 4.937491 
O 	 1.722436 	 -0.728741 	 2.355196 
O 	 -3.018589 	 -3.644043 	 1.193411 
O 	 1.127307 	 1.490994 	 6.428627 
O 	 7.271043 	 -2.170060 	 -6.964864 
O 	 3.568415 	 -6.525520 	 1.682386 
O 	 -2.800417 	 0.049377 	 2.924101 
O 	 -0.837616 	 6.607303 	 -3.111289 
O 	 6.726720 	 -4.613013 	 2.092282 
O 	 -7.041387 	 -1.853459 	 2.300440 
O 	 -4.313031 	 3.225817 	 -3.936282 
O 	 7.519292 	 0.604298 	 -4.101653 
O 	 -6.492845 	 7.179823 	 -5.802466 
O 	 -0.381362 	 -2.561303 	 1.669527 
O 	 1.591109 	 2.661952 	 -2.651016 
O 	 -0.821201 	 -1.665930 	 -3.883471 
O 	 -2.274129 	 4.393353 	 2.177379 
O 	 1.615370 	 -4.800462 	 4.442496 
O 	 5.483098 	 6.099663 	 -0.183003 
O 	 -0.175978 	 -4.802513 	 -1.131083 
O 	 -0.185363 	 -7.163993 	 0.209478 
O 	 -1.176990 	 1.929249 	 1.576349 
O 	 -3.534060 	 -2.497778 	 -7.258992 
O 	 -1.099185 	 -0.205692 	 6.643420 
O 	 2.964055 	 -4.469307 	 -0.135191 
O 	 -4.738582 	 -1.829930 	 -0.446476 
O 	 -6.267358 	 -5.940690 	 0.391421 
O 	 -3.861221 	 1.860295 	 -6.865380 
O 	 -3.786342 	 -5.761486 	 -6.651537 
O 	 5.647653 	 1.707145 	 -6.713859 
O 	 5.839863 	 -5.342499 	 -1.101085 
O 	 -4.530095 	 5.433204 	 -2.164862 
O 	 -5.595587 	 -4.281422 	 -4.588876 
O 	 3.687067 	 -2.565627 	 3.383035 
O 	 -6.699582 	 2.473393 	 3.059030 
O 	 -0.449072 	 -7.492862 	 5.962363 
O 	 -6.661611 	 4.356729 	 6.746113 
O 	 -6.162479 	 6.909737 	 5.814628 
O 	 -0.016125 	 2.206013 	 -5.315810 
O 	 1.028774 	 5.161162 	 -1.038985 
O 	 4.512352 	 -2.403314 	 -5.632660 
O 	 -3.241268 	 6.662775 	 7.432376 
O 	 -4.361430 	 -0.312850 	 -2.754799 
O 	 3.620915 	 2.431321 	 1.845581 
O 	 -6.594550 	 0.801901 	 -7.368557 
O 	 -5.391881 	 -5.982148 	 4.080488 
O 	 6.624613 	 4.061929 	 4.538617 
O 	 2.879937 	 1.028649 	 -5.443105 
O 	 -0.546354 	 -4.594516 	 6.330600 
O 	 1.457207 	 -0.033592 	 -2.973443 
O 	 2.677177 	 -3.501578 	 -3.188201 
O 	 2.808922 	 -0.274208 	 -0.697561 
O 	 -2.705343 	 5.374872 	 -4.911985 
O 	 1.480749 	 -1.686955 	 -5.235236 
O 	 1.983110 	 4.546663 	 5.901069 
O 	 -5.744038 	 6.833688 	 1.925220 
O 	 5.233667 	 -0.779552 	 -3.377123 
O 	 2.327040 	 5.929645 	 -6.844045 
O 	 -1.339145 	 -4.369468 	 -5.750735 
O 	 2.179291 	 -1.714552 	 6.128524 
O 	 -1.775263 	 0.143130 	 -5.682989 
O 	 -5.330567 	 -0.107059 	 1.644203 
O 	 -4.001714 	 -1.277464 	 5.151182 
O 	 -4.872528 	 4.840126 	 3.733145 
O 	 -6.016869 	 -4.847668 	 7.137081 
O 	 -3.820485 	 3.978081 	 6.336287 
O 	 -5.570542 	 -1.620965 	 -4.857060 
O 	 -1.744739 	 3.161646 	 -2.961231 
O 	 5.818972 	 -5.535610 	 6.424729 
O 	 2.128399 	 -4.468439 	 -7.378309 
O 	 0.970693 	 1.963770 	 3.208389 
O 	 -3.230928 	 -6.795852 	 -2.912276 
O 	 -4.696592 	 2.294119 	 0.428846 
K 	 5.139358 	 4.954898 	 2.064989 
