333
conformation = 67
H 	 4.991225 	 -7.458405 	 -3.504147 
H 	 5.324408 	 -6.154231 	 -2.624739 
H 	 1.483057 	 4.665076 	 2.243382 
H 	 2.507111 	 3.835526 	 1.417821 
H 	 6.563353 	 -7.441125 	 3.914191 
H 	 6.697910 	 -6.324567 	 2.832454 
H 	 2.032212 	 -6.477339 	 -5.199557 
H 	 3.519552 	 -6.582524 	 -4.791987 
H 	 5.814082 	 6.096970 	 7.176176 
H 	 5.214885 	 6.539922 	 5.760660 
H 	 3.326449 	 5.684579 	 4.919159 
H 	 3.798142 	 7.017983 	 4.474029 
H 	 -5.644744 	 3.967292 	 -4.741658 
H 	 -6.621250 	 5.199696 	 -5.068090 
H 	 5.465256 	 0.204253 	 4.916231 
H 	 6.986935 	 0.031537 	 4.443920 
H 	 -5.965220 	 5.483637 	 -0.973748 
H 	 -6.127244 	 5.799606 	 0.498068 
H 	 6.709218 	 -1.861951 	 4.794117 
H 	 -6.855319 	 -2.638908 	 4.617418 
H 	 0.202180 	 -6.830854 	 -3.828247 
H 	 -0.066288 	 -5.567331 	 -4.678366 
H 	 -5.402840 	 -0.055348 	 4.727976 
H 	 -6.233412 	 1.196151 	 4.166916 
H 	 -0.810057 	 -2.176738 	 4.082589 
H 	 -0.930775 	 -1.508096 	 5.560288 
H 	 3.749224 	 -0.413700 	 6.216511 
H 	 4.599073 	 0.654325 	 7.177817 
H 	 -2.059216 	 -6.443768 	 0.167650 
H 	 -3.016352 	 -5.218026 	 0.038255 
H 	 3.102126 	 -5.718310 	 4.877909 
H 	 4.664554 	 -5.857895 	 5.216438 
H 	 0.557271 	 6.318999 	 3.397973 
H 	 -0.825767 	 5.379823 	 3.275251 
H 	 7.490105 	 3.250102 	 0.785048 
H 	 6.485706 	 2.027752 	 0.709889 
H 	 -4.962007 	 2.457008 	 -2.766385 
H 	 -6.400631 	 1.915563 	 -2.515917 
H 	 -2.771351 	 1.568895 	 -0.602610 
H 	 -1.565608 	 1.806283 	 -1.589127 
H 	 -5.402681 	 -4.431824 	 -2.634557 
H 	 -5.506391 	 -3.766133 	 -1.182119 
H 	 -1.313481 	 -0.651603 	 -0.736007 
H 	 -1.744807 	 -2.024246 	 -1.205463 
H 	 4.971815 	 4.762946 	 -3.190094 
H 	 3.526967 	 5.481179 	 -3.698293 
H 	 6.281165 	 -4.914456 	 -5.970149 
H 	 6.076117 	 -5.769534 	 -4.669688 
H 	 -1.671804 	 3.714707 	 7.277400 
H 	 -1.354711 	 4.590218 	 -6.395842 
H 	 -2.150167 	 -6.580429 	 4.526604 
H 	 -3.176494 	 -5.633097 	 3.965999 
H 	 -4.128911 	 -3.450523 	 2.577895 
H 	 -4.983734 	 -3.978632 	 3.636164 
H 	 -1.650456 	 -4.631612 	 -2.199520 
H 	 -3.075530 	 -4.260918 	 -2.045168 
H 	 4.208506 	 -3.271818 	 0.530350 
H 	 4.666524 	 -2.783545 	 1.973262 
H 	 4.892512 	 2.467892 	 -2.078312 
H 	 4.400902 	 3.034760 	 -0.678229 
H 	 1.156534 	 -6.083051 	 3.380745 
H 	 2.110955 	 -6.840316 	 2.393608 
H 	 4.104816 	 2.161861 	 5.916146 
H 	 3.736622 	 3.650405 	 5.737571 
H 	 3.038767 	 7.276474 	 -0.356429 
H 	 2.211883 	 6.408431 	 -1.273279 
H 	 4.949770 	 -0.634745 	 1.023946 
H 	 5.606579 	 -0.028295 	 2.356281 
H 	 6.611449 	 4.507023 	 -5.984038 
H 	 5.256334 	 5.121824 	 -5.732995 
H 	 1.484881 	 4.304355 	 -3.716889 
H 	 0.915961 	 5.801715 	 -3.713400 
H 	 7.096208 	 3.958514 	 -1.905243 
H 	 7.149779 	 3.792269 	 -3.401481 
H 	 -2.582460 	 5.812345 	 -0.867610 
H 	 -1.664989 	 4.648050 	 -1.329317 
H 	 -1.613322 	 1.533482 	 5.297334 
H 	 -2.425440 	 1.981400 	 4.074183 
H 	 1.306866 	 -0.187839 	 2.988294 
H 	 1.192207 	 -1.495055 	 2.294693 
H 	 -3.386801 	 -3.115284 	 0.523065 
H 	 -2.058117 	 -3.101595 	 1.455391 
H 	 1.335805 	 2.469568 	 6.219218 
H 	 2.194922 	 1.123274 	 6.395166 
H 	 7.207954 	 -2.630635 	 7.071311 
H 	 -6.803274 	 -2.578955 	 -6.448196 
H 	 4.024772 	 -6.320125 	 2.636552 
H 	 3.938558 	 -5.629894 	 1.280871 
H 	 -3.078994 	 -0.361415 	 3.665875 
H 	 -3.587594 	 0.012667 	 2.274827 
H 	 -0.617283 	 6.054718 	 -2.337709 
H 	 -1.499620 	 7.224377 	 -2.777424 
H 	 6.331145 	 -4.293090 	 1.359241 
H 	 -7.199397 	 -4.899295 	 1.854605 
H 	 -6.463607 	 -2.539962 	 2.602558 
H 	 7.179704 	 -2.042212 	 1.782883 
H 	 -2.578485 	 3.169679 	 -3.355699 
H 	 -4.064265 	 2.578052 	 -4.600278 
H 	 6.769726 	 0.727898 	 -3.674113 
H 	 7.580678 	 1.312214 	 -4.836039 
H 	 -5.532110 	 -7.268438 	 -5.659277 
H 	 -7.023540 	 -6.886273 	 -5.707705 
H 	 0.354897 	 -3.202239 	 1.821485 
H 	 -0.341590 	 -2.414207 	 0.648735 
H 	 1.511445 	 1.705617 	 -2.782039 
H 	 2.535630 	 2.895218 	 -2.553545 
H 	 -0.104183 	 -1.231534 	 -3.242237 
H 	 -0.959558 	 -2.435285 	 -3.432957 
H 	 -1.664239 	 3.606912 	 2.100307 
H 	 -2.225050 	 4.708428 	 1.323060 
H 	 1.878284 	 -3.845230 	 4.062017 
H 	 1.095474 	 -4.623931 	 5.143863 
H 	 4.941193 	 6.449584 	 -0.992362 
H 	 6.438880 	 6.314988 	 -0.537954 
H 	 -0.044996 	 -5.562046 	 -0.585188 
H 	 0.354304 	 -5.071255 	 -1.935202 
H 	 0.393941 	 7.038405 	 -0.197665 
H 	 0.305918 	 -7.005395 	 1.093618 
H 	 -1.146149 	 1.661325 	 0.628412 
H 	 -1.538826 	 1.303136 	 2.074729 
H 	 -3.880367 	 -1.806646 	 -6.554733 
H 	 -4.081239 	 -3.154598 	 7.472489 
H 	 -0.081831 	 0.243369 	 6.617715 
H 	 -1.304902 	 -0.247315 	 -7.360131 
H 	 3.058293 	 -4.019759 	 -1.037095 
H 	 2.045026 	 -4.351368 	 0.102562 
H 	 -4.806537 	 -1.091291 	 0.303252 
H 	 -4.589474 	 -1.167310 	 -1.232765 
H 	 -5.709704 	 -5.418465 	 -0.266500 
H 	 -5.681022 	 -6.718110 	 0.592787 
H 	 -4.674826 	 1.531129 	 -6.877935 
H 	 -3.227136 	 1.266164 	 -6.306140 
H 	 -3.101315 	 -5.261364 	 -6.045093 
H 	 -3.189273 	 -6.562332 	 -6.929429 
H 	 6.566127 	 1.579649 	 -7.150900 
H 	 5.579538 	 2.728153 	 -6.967597 
H 	 5.435700 	 -4.815597 	 -0.418789 
H 	 6.814005 	 -5.523121 	 -0.683203 
H 	 -4.123114 	 4.770757 	 -2.782064 
H 	 -4.222151 	 6.360724 	 -2.603031 
H 	 -6.385611 	 -4.524637 	 -4.868671 
H 	 -5.558268 	 -3.254587 	 -4.498915 
H 	 3.237857 	 -1.718466 	 3.094204 
H 	 4.219923 	 -2.266096 	 4.195140 
H 	 -5.756490 	 3.093043 	 3.141879 
H 	 -7.204371 	 2.992518 	 3.642226 
H 	 -0.424787 	 6.798845 	 5.293375 
H 	 -1.029909 	 7.052043 	 6.626431 
H 	 -5.680171 	 4.279432 	 6.376979 
H 	 -6.337405 	 4.337804 	 -7.201779 
H 	 -5.697011 	 7.364056 	 6.622947 
H 	 -7.006305 	 6.928432 	 6.129656 
H 	 1.032159 	 2.002212 	 -5.469775 
H 	 -0.082913 	 2.938950 	 -6.037044 
H 	 1.428377 	 4.366902 	 -1.414664 
H 	 1.194068 	 5.046346 	 -0.081171 
H 	 5.520834 	 -2.356268 	 -5.906644 
H 	 4.243895 	 -3.138415 	 -5.186414 
H 	 -2.982391 	 6.062126 	 -6.811092 
H 	 -3.485363 	 6.201587 	 6.693687 
H 	 -4.712103 	 0.564515 	 -2.546055 
H 	 -3.287771 	 -0.020851 	 -2.576954 
H 	 4.331114 	 1.660080 	 1.720718 
H 	 2.916103 	 2.102913 	 2.275920 
H 	 -6.356568 	 0.974573 	 6.519542 
H 	 -6.446619 	 -0.129707 	 -7.348408 
H 	 -5.237966 	 -6.161272 	 3.119355 
H 	 -5.831394 	 -6.699987 	 4.384802 
H 	 6.223657 	 3.565231 	 5.129754 
H 	 7.266485 	 4.613197 	 5.238042 
H 	 3.751120 	 1.232426 	 -5.954253 
H 	 2.648113 	 0.226022 	 -5.737222 
H 	 -0.618550 	 -3.629301 	 5.853536 
H 	 -0.910963 	 -5.291567 	 5.984683 
H 	 2.088580 	 -0.219955 	 -2.095820 
H 	 2.269159 	 -0.122567 	 -3.588555 
H 	 2.479848 	 -2.546069 	 -3.544427 
H 	 2.606354 	 -4.042454 	 -3.919995 
H 	 3.159268 	 0.698591 	 -0.649922 
H 	 2.440122 	 -0.336144 	 0.224115 
H 	 -2.097136 	 5.613944 	 -4.141957 
H 	 -3.206263 	 4.631437 	 -4.737914 
H 	 0.640614 	 -1.545564 	 -4.942522 
H 	 1.581419 	 -2.449989 	 -5.694820 
H 	 1.264428 	 4.737239 	 5.405321 
H 	 2.144534 	 5.247835 	 6.652546 
H 	 -5.199756 	 6.177578 	 2.492437 
H 	 -6.512073 	 6.917197 	 2.180450 
H 	 5.020487 	 -1.254640 	 -2.606206 
H 	 5.143051 	 -1.372101 	 -4.085043 
H 	 2.080234 	 5.472157 	 -6.109846 
H 	 2.762759 	 6.752800 	 -6.292455 
H 	 -1.346661 	 -4.506950 	 -6.744487 
H 	 -1.224423 	 -3.380006 	 -5.701367 
H 	 2.416991 	 -2.577351 	 6.523248 
H 	 1.430053 	 -1.654043 	 5.671887 
H 	 -1.002816 	 0.823090 	 -5.452007 
H 	 -1.647399 	 -0.552810 	 -5.004040 
H 	 -5.969627 	 -0.457111 	 2.126059 
H 	 -5.525786 	 0.856056 	 1.363710 
H 	 -4.168524 	 -2.062997 	 4.695343 
H 	 -3.659480 	 -1.423718 	 6.104194 
H 	 -4.769710 	 5.460794 	 4.541464 
H 	 -3.877052 	 4.754995 	 3.460779 
H 	 -5.119801 	 -5.217531 	 -7.311829 
H 	 -5.676867 	 -4.788084 	 6.242857 
H 	 -3.773658 	 3.350904 	 7.097035 
H 	 -3.207704 	 3.462660 	 5.724777 
H 	 -6.204771 	 -1.022211 	 -4.668723 
H 	 -4.796736 	 -1.253230 	 -4.239944 
H 	 -1.098734 	 2.801805 	 -3.738771 
H 	 -5.052610 	 2.252959 	 -0.454949 
H 	 6.826627 	 -5.061843 	 6.377295 
H 	 6.114789 	 -6.448895 	 6.585077 
H 	 2.569356 	 -5.311997 	 -7.020351 
H 	 1.240565 	 -4.637267 	 7.311714 
H 	 0.392260 	 2.257301 	 3.849799 
H 	 0.479261 	 2.073432 	 2.345995 
H 	 -3.090425 	 -6.507908 	 -1.927216 
H 	 -2.944266 	 -5.869715 	 -3.291544 
H 	 -4.788395 	 3.338134 	 0.638481 
O 	 5.083519 	 -6.477056 	 -3.510686 
O 	 2.096410 	 4.752528 	 1.504758 
O 	 6.889701 	 -7.269571 	 2.996447 
O 	 2.935021 	 -6.501101 	 -5.608965 
O 	 5.947246 	 6.735702 	 6.422273 
O 	 4.047018 	 6.067708 	 4.356860 
O 	 -6.631187 	 4.208460 	 -4.982984 
O 	 6.050605 	 -0.334636 	 4.340209 
O 	 -6.682185 	 5.672607 	 -0.353970 
O 	 7.271093 	 -2.568752 	 5.167516 
O 	 0.598286 	 -5.923790 	 -4.015790 
O 	 -6.180386 	 0.531482 	 4.892317 
O 	 -0.427093 	 -2.193897 	 4.987062 
O 	 4.165869 	 0.484864 	 6.309921 
O 	 -2.969216 	 -6.162802 	 -0.149186 
O 	 3.973878 	 -6.053631 	 4.517561 
O 	 0.015543 	 5.568405 	 3.794110 
O 	 6.685399 	 2.919603 	 0.380883 
O 	 -5.515174 	 1.959519 	 -2.064825 
O 	 -1.939828 	 1.129735 	 -0.929016 
O 	 -5.100841 	 -4.474643 	 -1.699815 
O 	 -1.027011 	 -1.582480 	 -0.733594 
O 	 4.492179 	 5.461958 	 -3.766357 
O 	 6.781051 	 -5.422643 	 -5.325165 
O 	 -0.907705 	 4.201348 	 -7.200713 
O 	 -2.202632 	 -5.791332 	 3.909532 
O 	 -4.762445 	 -3.131383 	 3.252685 
O 	 -2.317560 	 -4.092678 	 -2.651684 
O 	 4.985544 	 -2.843550 	 0.993450 
O 	 4.112426 	 2.575055 	 -1.470523 
O 	 1.204733 	 -6.888803 	 2.786452 
O 	 4.437042 	 3.017404 	 5.615385 
O 	 2.911614 	 7.104255 	 -1.320644 
O 	 5.268300 	 0.207467 	 1.431384 
O 	 5.746198 	 4.731600 	 -6.446370 
O 	 1.552729 	 5.219690 	 -4.222138 
O 	 6.533155 	 3.961817 	 -2.670820 
O 	 -1.693708 	 5.426244 	 -0.717924 
O 	 -2.176106 	 2.275399 	 4.936625 
O 	 1.788148 	 -0.735344 	 2.346446 
O 	 -2.874285 	 -3.607829 	 1.232460 
O 	 1.238192 	 1.503039 	 6.423142 
O 	 7.340721 	 -2.196354 	 -6.957124 
O 	 3.675375 	 -6.454921 	 1.721162 
O 	 -2.781945 	 0.121553 	 2.895051 
O 	 -0.756686 	 6.666945 	 -3.149217 
O 	 6.837718 	 -4.583131 	 2.133702 
O 	 -6.967690 	 -1.784846 	 2.307578 
O 	 -4.240028 	 3.282632 	 -3.937071 
O 	 7.629882 	 0.666737 	 -4.085965 
O 	 -6.413361 	 7.258948 	 -5.844449 
O 	 -0.264998 	 -2.526132 	 1.652578 
O 	 1.607314 	 2.732581 	 -2.660733 
O 	 -0.720869 	 -1.626615 	 -3.867827 
O 	 -2.164195 	 4.434364 	 2.205515 
O 	 1.708468 	 -4.760799 	 4.418629 
O 	 5.527952 	 6.189670 	 -0.185705 
O 	 -0.090746 	 -4.747217 	 -1.125280 
O 	 -0.118492 	 -7.123181 	 0.228568 
O 	 -1.063338 	 1.981771 	 1.590000 
O 	 -3.459621 	 -2.423729 	 -7.206722 
O 	 -1.019274 	 -0.120523 	 6.623697 
O 	 2.995429 	 -4.426682 	 -0.138732 
O 	 -4.658709 	 -1.768732 	 -0.434722 
O 	 -6.175849 	 -5.926796 	 0.447395 
O 	 -3.776245 	 1.882136 	 -6.837294 
O 	 -3.693792 	 -5.742222 	 -6.655248 
O 	 5.728306 	 1.819785 	 -6.673475 
O 	 5.955177 	 -5.301411 	 -1.070675 
O 	 -4.371419 	 5.486945 	 -2.195512 
O 	 -5.498072 	 -4.263913 	 -4.587905 
O 	 3.745938 	 -2.523158 	 3.377890 
O 	 -6.546243 	 2.508170 	 3.072793 
O 	 -0.418924 	 -7.418384 	 5.969861 
O 	 -6.575894 	 4.399912 	 6.774474 
O 	 -6.074515 	 6.947556 	 5.809233 
O 	 0.065431 	 2.245616 	 -5.369179 
O 	 1.084166 	 5.202944 	 -1.067802 
O 	 4.576234 	 -2.358236 	 -5.620175 
O 	 -3.177750 	 6.715762 	 7.431892 
O 	 -4.212524 	 -0.277385 	 -2.739532 
O 	 3.726049 	 2.420300 	 1.779948 
O 	 -6.554904 	 0.837369 	 -7.375552 
O 	 -5.280621 	 -5.941236 	 4.073840 
O 	 6.729125 	 4.133438 	 4.514641 
O 	 2.993332 	 1.086755 	 -5.434024 
O 	 -0.449466 	 -4.498654 	 6.376147 
O 	 1.548907 	 0.011461 	 -2.924464 
O 	 2.731041 	 -3.408038 	 -3.214286 
O 	 2.862008 	 -0.248338 	 -0.693294 
O 	 -2.601940 	 5.390256 	 -4.959241 
O 	 1.576582 	 -1.599291 	 -5.253030 
O 	 2.088737 	 4.589824 	 5.909201 
O 	 -5.609549 	 6.852944 	 1.935881 
O 	 5.298080 	 -0.740560 	 -3.361435 
O 	 2.385791 	 5.991453 	 -6.848075 
O 	 -1.294261 	 -4.320773 	 -5.801351 
O 	 2.284846 	 -1.664395 	 6.160176 
O 	 -1.684775 	 0.154412 	 -5.692067 
O 	 -5.237454 	 -0.068119 	 1.633011 
O 	 -3.883648 	 -1.230951 	 5.141177 
O 	 -4.794006 	 4.895940 	 3.732215 
O 	 -5.939799 	 -4.789337 	 7.188573 
O 	 -3.748817 	 3.981884 	 6.364506 
O 	 -5.441443 	 -1.599851 	 -4.891867 
O 	 -1.633107 	 3.221462 	 -3.003877 
O 	 5.929458 	 -5.472169 	 6.426162 
O 	 2.205568 	 -4.438017 	 -7.333126 
O 	 1.059277 	 2.011598 	 3.214190 
O 	 -3.134875 	 -6.788923 	 -2.931939 
O 	 -4.637689 	 2.367487 	 0.456669 
K 	 5.216500 	 4.992471 	 2.080911 
