333
conformation = 25
H 	 4.955040 	 -7.501945 	 -3.385803 
H 	 4.926316 	 -5.994186 	 -2.696288 
H 	 1.403297 	 4.466748 	 2.112305 
H 	 2.548222 	 3.867104 	 1.362609 
H 	 6.905964 	 -7.455443 	 4.210446 
H 	 6.439219 	 -6.450117 	 3.015319 
H 	 2.341589 	 -6.373183 	 -4.801183 
H 	 3.852189 	 -6.410537 	 -4.970657 
H 	 5.899700 	 6.078841 	 7.145211 
H 	 5.320026 	 6.215310 	 5.679336 
H 	 3.276974 	 5.499448 	 4.745700 
H 	 3.830106 	 6.975464 	 4.455499 
H 	 -5.894331 	 3.793314 	 -4.622366 
H 	 -6.337802 	 5.240009 	 -5.107968 
H 	 5.403380 	 -0.280492 	 5.081961 
H 	 6.790815 	 0.196633 	 4.599610 
H 	 -6.080788 	 5.789295 	 -1.091252 
H 	 -6.568076 	 6.449487 	 0.221851 
H 	 6.927135 	 -2.029981 	 4.567124 
H 	 -6.783701 	 -2.814666 	 4.864616 
H 	 0.073064 	 -6.543214 	 -3.671916 
H 	 -0.071806 	 -5.207807 	 -4.570584 
H 	 -5.438194 	 -0.037242 	 4.908665 
H 	 -6.191620 	 1.097023 	 4.143441 
H 	 -0.916078 	 -2.081716 	 4.113426 
H 	 -0.845167 	 -1.520254 	 5.596110 
H 	 3.435736 	 -0.443311 	 6.764743 
H 	 4.591327 	 0.600586 	 7.156143 
H 	 -1.956001 	 -6.592617 	 0.068116 
H 	 -2.961033 	 -5.517131 	 0.553176 
H 	 3.161393 	 -5.631570 	 4.462850 
H 	 4.628157 	 -5.796169 	 5.060639 
H 	 0.127434 	 6.512522 	 3.369096 
H 	 -0.880468 	 5.163481 	 3.191072 
H 	 7.250222 	 2.882400 	 1.040339 
H 	 6.257209 	 1.895206 	 0.533544 
H 	 -5.077843 	 2.341352 	 -3.046064 
H 	 -6.390136 	 1.556473 	 -2.521465 
H 	 -3.126149 	 1.304465 	 -0.741572 
H 	 -2.030208 	 1.692259 	 -1.731779 
H 	 -5.384581 	 -4.365363 	 -2.829712 
H 	 -5.027223 	 -3.506159 	 -1.497692 
H 	 -1.724054 	 -0.889329 	 -1.024414 
H 	 -1.577102 	 -2.409051 	 -1.166223 
H 	 4.668949 	 4.857907 	 -3.085888 
H 	 3.365436 	 5.342967 	 -3.800319 
H 	 6.227627 	 -5.707335 	 -6.259206 
H 	 6.197212 	 -5.771755 	 -4.694276 
H 	 -1.452992 	 4.260187 	 6.942012 
H 	 -1.748458 	 4.568021 	 -6.417481 
H 	 -2.184647 	 -6.713679 	 4.242434 
H 	 -3.056607 	 -5.709728 	 3.453791 
H 	 -4.252887 	 -3.104719 	 2.464128 
H 	 -5.047425 	 -4.148552 	 3.457870 
H 	 -1.872371 	 -4.527077 	 -1.859817 
H 	 -3.249442 	 -4.010206 	 -2.473001 
H 	 4.290163 	 -2.920240 	 0.315400 
H 	 4.446998 	 -2.722529 	 1.804188 
H 	 4.806016 	 2.531076 	 -1.921243 
H 	 4.256032 	 3.180471 	 -0.687912 
H 	 1.019805 	 -6.143055 	 3.402581 
H 	 1.897481 	 -6.946247 	 2.339894 
H 	 4.201276 	 1.996156 	 5.519588 
H 	 3.568415 	 3.425290 	 5.701122 
H 	 2.915854 	 7.273312 	 -0.389385 
H 	 2.484044 	 6.366830 	 -1.546237 
H 	 4.890040 	 -0.656554 	 1.117291 
H 	 5.512865 	 -0.156999 	 2.435028 
H 	 6.352650 	 4.352550 	 -6.022672 
H 	 4.835403 	 4.734402 	 -5.729634 
H 	 1.278626 	 4.186668 	 -3.990435 
H 	 0.593832 	 5.657075 	 -4.142527 
H 	 6.922244 	 3.698453 	 -1.885400 
H 	 7.122276 	 4.291052 	 -3.296440 
H 	 -2.697377 	 5.407555 	 -1.027054 
H 	 -1.443808 	 4.482122 	 -1.004984 
H 	 -2.402835 	 1.750960 	 5.751370 
H 	 -2.469855 	 1.642463 	 4.156812 
H 	 1.791881 	 0.372406 	 2.510664 
H 	 0.875606 	 -0.850133 	 2.255064 
H 	 -3.419749 	 -2.774131 	 0.552576 
H 	 -2.193937 	 -3.432526 	 1.293146 
H 	 1.264030 	 2.554813 	 6.478035 
H 	 1.905943 	 1.123703 	 6.723961 
H 	 7.394008 	 -2.050604 	 6.872443 
H 	 -7.238104 	 -2.912085 	 -6.778271 
H 	 3.990728 	 -6.175923 	 2.292988 
H 	 3.423017 	 -5.887037 	 0.922741 
H 	 -2.708962 	 -0.370248 	 3.871220 
H 	 -3.528253 	 0.005494 	 2.595576 
H 	 -0.653629 	 6.486667 	 -2.079221 
H 	 -1.680712 	 7.114835 	 -3.041018 
H 	 5.976020 	 -4.056892 	 1.667572 
H 	 7.238254 	 -4.837386 	 1.055543 
H 	 -6.309401 	 -2.528233 	 2.343482 
H 	 7.066066 	 -2.398307 	 1.922301 
H 	 -2.647866 	 3.104224 	 -3.392957 
H 	 -4.166077 	 2.804335 	 -4.864681 
H 	 6.770490 	 -0.141783 	 -4.082614 
H 	 7.081229 	 1.189982 	 -4.855062 
H 	 -5.735724 	 -7.142359 	 -5.884646 
H 	 -7.240226 	 -7.206270 	 -5.749268 
H 	 -0.065108 	 -3.379517 	 1.348843 
H 	 -0.672500 	 -2.237276 	 0.785602 
H 	 1.162992 	 1.900162 	 -2.863217 
H 	 2.418170 	 2.415537 	 -2.031955 
H 	 -0.167641 	 -1.191676 	 -3.342854 
H 	 -1.371381 	 -2.215803 	 -3.298001 
H 	 -2.099304 	 3.529276 	 1.768182 
H 	 -2.074748 	 4.943829 	 1.235122 
H 	 2.033644 	 -3.898920 	 4.532039 
H 	 0.720131 	 -4.660731 	 5.071587 
H 	 5.135032 	 6.625455 	 -0.908871 
H 	 6.467911 	 5.795701 	 -0.615456 
H 	 -0.114030 	 -5.797818 	 -1.077389 
H 	 0.412296 	 -4.623716 	 -2.023349 
H 	 -0.635454 	 6.868472 	 0.077729 
H 	 0.136203 	 -7.138359 	 1.156845 
H 	 -1.374064 	 1.687504 	 0.550833 
H 	 -1.747960 	 1.168948 	 2.002991 
H 	 -3.940012 	 -2.213012 	 -6.523294 
H 	 -3.873121 	 -3.501247 	 -7.241160 
H 	 -0.387099 	 0.423750 	 6.571563 
H 	 -1.440878 	 -0.272243 	 -7.336252 
H 	 3.134324 	 -4.659957 	 -1.167292 
H 	 2.052159 	 -4.537368 	 -0.218686 
H 	 -5.174074 	 -1.299292 	 0.161479 
H 	 -4.586112 	 -1.371515 	 -1.321778 
H 	 -5.724217 	 -5.666691 	 -0.611668 
H 	 -5.739077 	 -6.318114 	 0.834301 
H 	 -4.757589 	 1.426747 	 -7.039785 
H 	 -3.157767 	 1.261667 	 -6.876778 
H 	 -2.977112 	 -5.364564 	 -6.254798 
H 	 -3.471498 	 -6.511222 	 -7.138529 
H 	 6.688011 	 1.470899 	 -6.946710 
H 	 5.553794 	 2.477849 	 -7.036368 
H 	 5.497210 	 -4.789308 	 -0.457629 
H 	 6.429607 	 -5.941050 	 -0.818043 
H 	 -4.852154 	 4.738019 	 -2.831236 
H 	 -4.415205 	 6.234842 	 -2.725143 
H 	 -6.427820 	 -4.673271 	 -4.902554 
H 	 -5.805488 	 -3.297900 	 -4.876980 
H 	 3.087298 	 -1.901890 	 3.287824 
H 	 4.565324 	 -2.234555 	 3.843201 
H 	 -6.060725 	 3.146088 	 3.003665 
H 	 7.394342 	 3.022927 	 3.492979 
H 	 -0.302844 	 6.490142 	 5.410614 
H 	 -0.645718 	 7.093331 	 6.817408 
H 	 -5.639155 	 4.231750 	 6.667781 
H 	 -6.894172 	 4.439402 	 -7.321303 
H 	 -5.564026 	 6.689767 	 6.491121 
H 	 -6.974045 	 6.445650 	 5.805305 
H 	 0.890085 	 1.966764 	 -5.394720 
H 	 -0.228278 	 2.863770 	 -6.016444 
H 	 0.810269 	 4.292777 	 -1.501135 
H 	 1.384072 	 4.802668 	 -0.231902 
H 	 5.349227 	 -2.463426 	 -6.415101 
H 	 4.831045 	 -3.146930 	 -5.081715 
H 	 -3.249926 	 6.414294 	 -6.569938 
H 	 -3.154669 	 5.789224 	 6.918807 
H 	 -4.942366 	 0.552713 	 -2.621201 
H 	 -3.538524 	 -0.155017 	 -2.670964 
H 	 4.060670 	 1.727082 	 1.755155 
H 	 3.132070 	 2.287407 	 2.823650 
H 	 -6.512629 	 0.765993 	 6.580323 
H 	 -6.780484 	 0.004921 	 -6.972486 
H 	 -5.453800 	 -6.739712 	 3.409546 
H 	 -5.429189 	 -6.324416 	 4.920678 
H 	 5.708907 	 3.622096 	 4.730676 
H 	 7.100169 	 4.025128 	 5.412983 
H 	 3.717770 	 1.265507 	 -5.461117 
H 	 2.798640 	 0.020152 	 -5.709509 
H 	 -0.915718 	 -3.877450 	 5.721747 
H 	 -1.155527 	 -5.380389 	 5.674502 
H 	 1.762759 	 -0.192458 	 -2.255491 
H 	 2.002858 	 0.171956 	 -3.886435 
H 	 2.222355 	 -3.179109 	 -3.871352 
H 	 2.499551 	 -4.534376 	 -3.342661 
H 	 3.420214 	 0.583590 	 -0.862648 
H 	 2.359153 	 -0.194346 	 0.092975 
H 	 -1.868433 	 5.709746 	 -4.458138 
H 	 -3.204790 	 4.810590 	 -4.277833 
H 	 0.582771 	 -2.142109 	 -5.212259 
H 	 1.788817 	 -2.223635 	 -6.160870 
H 	 1.201822 	 4.864111 	 5.202942 
H 	 1.956034 	 5.150578 	 6.635585 
H 	 -5.538102 	 6.133207 	 2.461609 
H 	 -6.818026 	 7.084392 	 2.494200 
H 	 5.135566 	 -1.504817 	 -2.905391 
H 	 4.862469 	 -1.036597 	 -4.279718 
H 	 2.011828 	 5.543370 	 -6.053493 
H 	 2.483578 	 6.866070 	 -6.855090 
H 	 -0.746496 	 -4.136948 	 -6.496816 
H 	 -1.543234 	 -3.567984 	 -5.295969 
H 	 2.253927 	 -2.554486 	 6.551967 
H 	 1.218159 	 -1.806228 	 5.685082 
H 	 -1.121931 	 0.952656 	 -5.501040 
H 	 -1.583897 	 -0.413770 	 -5.006391 
H 	 -6.216289 	 -0.432936 	 1.722244 
H 	 -5.413155 	 0.827141 	 1.286536 
H 	 -4.323611 	 -1.975985 	 4.483211 
H 	 -3.830599 	 -1.754374 	 5.923814 
H 	 -4.857007 	 4.914020 	 4.604572 
H 	 -3.977590 	 4.786913 	 3.238372 
H 	 -5.272429 	 -5.122729 	 -7.317918 
H 	 -5.638074 	 -4.922893 	 6.047239 
H 	 -3.659987 	 3.355655 	 6.923147 
H 	 -3.483900 	 3.566197 	 5.429296 
H 	 -6.351411 	 -0.954060 	 -5.068668 
H 	 -5.179241 	 -1.042604 	 -4.134118 
H 	 -1.087764 	 3.314728 	 -3.494615 
H 	 -5.142788 	 2.513839 	 -0.470167 
H 	 6.630993 	 -5.040463 	 6.229045 
H 	 6.030722 	 -6.467883 	 6.433878 
H 	 2.553745 	 -4.995200 	 -6.881582 
H 	 1.375435 	 -4.964855 	 7.044186 
H 	 0.731426 	 1.883826 	 4.065150 
H 	 0.149794 	 1.938042 	 2.663865 
H 	 -3.287851 	 -6.358047 	 -2.058097 
H 	 -3.435054 	 -6.209787 	 -3.676334 
H 	 -4.290327 	 3.118027 	 0.652000 
O 	 5.006400 	 -6.542745 	 -3.503556 
O 	 1.919159 	 4.660312 	 1.301055 
O 	 6.744705 	 -7.378894 	 3.235883 
O 	 3.011142 	 -6.509078 	 -5.470666 
O 	 5.925077 	 6.634704 	 6.330860 
O 	 3.975582 	 5.984593 	 4.324794 
O 	 -6.584747 	 4.286744 	 -5.093106 
O 	 5.989508 	 -0.286848 	 4.268950 
O 	 -6.708796 	 5.666210 	 -0.363227 
O 	 7.228327 	 -2.703912 	 5.230402 
O 	 0.560506 	 -5.801338 	 -4.100102 
O 	 -6.255124 	 0.491090 	 4.943324 
O 	 -0.622902 	 -2.283336 	 5.016020 
O 	 4.052491 	 0.252572 	 6.389135 
O 	 -2.908459 	 -6.326350 	 0.048393 
O 	 3.937862 	 -6.220057 	 4.497144 
O 	 -0.101973 	 5.611867 	 3.686205 
O 	 6.517640 	 2.820466 	 0.413224 
O 	 -5.548537 	 1.930623 	 -2.248118 
O 	 -2.203551 	 1.082832 	 -1.029607 
O 	 -5.071520 	 -4.423091 	 -1.864677 
O 	 -1.100238 	 -1.619629 	 -0.984616 
O 	 4.326885 	 5.386218 	 -3.830504 
O 	 6.664918 	 -5.370794 	 -5.473284 
O 	 -1.121983 	 4.204024 	 -7.035573 
O 	 -2.178329 	 -5.762585 	 3.901756 
O 	 -4.881571 	 -3.184206 	 3.248773 
O 	 -2.285879 	 -4.178384 	 -2.692393 
O 	 4.997737 	 -2.780199 	 1.001309 
O 	 4.017540 	 2.480440 	 -1.304453 
O 	 1.018719 	 -6.901244 	 2.826712 
O 	 4.427851 	 2.939571 	 5.545591 
O 	 3.037215 	 7.154970 	 -1.357485 
O 	 5.301168 	 0.164610 	 1.478490 
O 	 5.483599 	 4.600215 	 -6.466371 
O 	 1.449511 	 5.152316 	 -4.274163 
O 	 6.445203 	 3.917115 	 -2.695622 
O 	 -1.854594 	 5.248230 	 -0.569112 
O 	 -2.161865 	 2.210807 	 4.865440 
O 	 1.797765 	 -0.599325 	 2.337343 
O 	 -3.158805 	 -3.557998 	 1.061132 
O 	 1.081541 	 1.614910 	 6.376985 
O 	 7.294358 	 -2.016269 	 -7.005409 
O 	 3.539409 	 -6.620975 	 1.561577 
O 	 -2.626976 	 -0.006039 	 2.957954 
O 	 -0.839827 	 6.594484 	 -3.065837 
O 	 6.753641 	 -4.619283 	 1.941457 
O 	 -7.075889 	 -1.906411 	 2.234099 
O 	 -4.263028 	 3.221632 	 -3.987694 
O 	 7.476615 	 0.598849 	 -4.165188 
O 	 -6.449360 	 7.102234 	 -5.780344 
O 	 -0.385322 	 -2.555443 	 1.693699 
O 	 1.754634 	 2.689575 	 -2.660050 
O 	 -0.869350 	 -1.664416 	 -3.938114 
O 	 -2.328120 	 4.453547 	 2.055698 
O 	 1.538413 	 -4.752410 	 4.449120 
O 	 5.573836 	 5.993380 	 -0.254589 
O 	 -0.080748 	 -4.810507 	 -1.189049 
O 	 -0.140179 	 -7.171256 	 0.178324 
O 	 -1.244324 	 1.887014 	 1.511410 
O 	 -3.584235 	 -2.566521 	 -7.398294 
O 	 -1.063894 	 -0.256030 	 6.620123 
O 	 3.039033 	 -4.377116 	 -0.240841 
O 	 -4.734616 	 -1.932996 	 -0.513326 
O 	 -6.272125 	 -5.848851 	 0.199142 
O 	 -3.904467 	 1.910154 	 -6.926397 
O 	 -3.806530 	 -5.692995 	 -6.669355 
O 	 5.692219 	 1.523733 	 -6.850602 
O 	 5.801078 	 -5.316073 	 -1.219432 
O 	 -4.649238 	 5.442762 	 -2.159945 
O 	 -5.637695 	 -4.234359 	 -4.589300 
O 	 3.775476 	 -2.561725 	 3.362002 
O 	 -6.821713 	 2.500480 	 2.991963 
O 	 -0.333926 	 7.348233 	 5.900094 
O 	 -6.639119 	 4.326121 	 6.660227 
O 	 -6.155614 	 6.954185 	 5.766491 
O 	 -0.022385 	 2.252412 	 -5.258805 
O 	 1.066773 	 5.110454 	 -1.086325 
O 	 4.631691 	 -2.414722 	 -5.702697 
O 	 -3.165791 	 6.623247 	 7.398185 
O 	 -4.484102 	 -0.337122 	 -2.816053 
O 	 3.571838 	 2.559785 	 1.968893 
O 	 -6.473928 	 0.833760 	 -7.349599 
O 	 -5.413568 	 -5.918460 	 4.014510 
O 	 6.592690 	 4.041723 	 4.511151 
O 	 2.812033 	 0.981172 	 -5.524784 
O 	 -0.607889 	 -4.702132 	 6.165911 
O 	 1.388618 	 -0.034795 	 -3.147133 
O 	 2.790900 	 -3.620748 	 -3.196144 
O 	 2.895501 	 -0.237073 	 -0.732505 
O 	 -2.725456 	 5.439249 	 -4.902152 
O 	 1.538459 	 -1.852208 	 -5.310293 
O 	 1.913924 	 4.541522 	 5.789240 
O 	 -5.895580 	 6.911123 	 1.949137 
O 	 5.258423 	 -0.744167 	 -3.466196 
O 	 2.404291 	 5.878044 	 -6.874827 
O 	 -1.220644 	 -4.376226 	 -5.700526 
O 	 2.146000 	 -1.738889 	 6.023464 
O 	 -1.786196 	 0.245445 	 -5.717422 
O 	 -5.285148 	 -0.067141 	 1.618815 
O 	 -4.096897 	 -1.263605 	 5.098753 
O 	 -4.832757 	 4.830100 	 3.636696 
O 	 -6.004453 	 -4.822488 	 6.941332 
O 	 -3.787769 	 4.076059 	 6.227834 
O 	 -5.661725 	 -1.543445 	 -4.813228 
O 	 -1.804793 	 3.118304 	 -2.854789 
O 	 5.773144 	 -5.512583 	 6.381619 
O 	 2.125908 	 -4.379684 	 7.366559 
O 	 0.994947 	 1.958484 	 3.156953 
O 	 -3.276654 	 -6.801714 	 -2.909145 
O 	 -4.590045 	 2.245785 	 0.274277 
K 	 5.174716 	 4.981155 	 2.006639 
