333
conformation = 5
H 	 5.051025 	 7.304297 	 0.060529 
H 	 5.765950 	 -6.247867 	 0.714523 
H 	 1.724383 	 4.712416 	 5.397457 
H 	 2.610740 	 3.556433 	 4.893291 
H 	 -7.422868 	 -7.367308 	 -7.236856 
H 	 7.170914 	 -6.673848 	 6.365053 
H 	 2.697234 	 -6.585972 	 -1.498318 
H 	 4.231913 	 -6.471971 	 -1.294995 
H 	 6.258248 	 5.842596 	 -4.432912 
H 	 5.784484 	 6.247503 	 -5.888756 
H 	 3.781628 	 5.491541 	 -6.516802 
H 	 4.283705 	 6.792251 	 -7.126385 
H 	 -5.189314 	 3.757512 	 -1.577918 
H 	 -5.807522 	 5.204618 	 -1.843099 
H 	 5.801343 	 -0.166179 	 -6.530536 
H 	 7.323077 	 -0.051588 	 -7.004146 
H 	 -5.418744 	 5.547697 	 2.374839 
H 	 -5.858510 	 6.198392 	 3.635715 
H 	 7.336004 	 -2.298703 	 -6.852636 
H 	 -6.273507 	 -3.179599 	 -6.579006 
H 	 0.689357 	 -6.596246 	 -0.274197 
H 	 0.365877 	 -5.450957 	 -1.211923 
H 	 -5.105975 	 -0.396547 	 -6.561969 
H 	 -5.645224 	 0.976275 	 7.608008 
H 	 -0.332967 	 -2.247028 	 7.523688 
H 	 -0.567855 	 -1.656687 	 -5.866714 
H 	 3.955612 	 -0.770573 	 -5.116319 
H 	 4.967282 	 0.193198 	 -4.193514 
H 	 -1.424041 	 -6.631349 	 3.804311 
H 	 -2.677931 	 -5.657638 	 3.908929 
H 	 3.550345 	 -6.068132 	 -6.942650 
H 	 4.901084 	 -6.055284 	 -6.206226 
H 	 0.693637 	 6.355464 	 6.632017 
H 	 -0.327433 	 5.080536 	 6.603010 
H 	 -7.202875 	 2.517725 	 4.552695 
H 	 6.363471 	 1.870796 	 3.970867 
H 	 -4.533104 	 2.394043 	 0.411012 
H 	 -5.922687 	 1.698896 	 0.552668 
H 	 -2.663732 	 1.278821 	 2.732011 
H 	 -1.579468 	 1.717276 	 1.679933 
H 	 -4.968897 	 -4.358229 	 0.568773 
H 	 -4.644426 	 -3.724201 	 2.004269 
H 	 -1.284505 	 -1.018435 	 2.352739 
H 	 -1.130059 	 -2.571412 	 2.098978 
H 	 5.253576 	 4.881460 	 0.262382 
H 	 3.770624 	 5.281208 	 -0.363070 
H 	 6.722022 	 -5.651936 	 -3.027194 
H 	 6.540768 	 -5.958324 	 -1.516558 
H 	 -0.880452 	 4.383727 	 -4.406789 
H 	 -1.406386 	 4.473059 	 -2.935746 
H 	 -1.416330 	 -6.821133 	 7.429955 
H 	 -2.584081 	 -5.939501 	 7.161770 
H 	 -3.803165 	 -3.558954 	 5.920667 
H 	 -4.642266 	 -4.289839 	 6.913889 
H 	 -1.286488 	 -4.771290 	 1.350188 
H 	 -2.684670 	 -4.382350 	 0.926880 
H 	 4.944420 	 -3.116051 	 3.676688 
H 	 4.856500 	 -2.711382 	 5.184096 
H 	 5.100856 	 2.493166 	 1.458100 
H 	 4.825198 	 2.979756 	 2.906666 
H 	 1.471821 	 -6.162405 	 6.665217 
H 	 2.323249 	 -7.303358 	 5.918930 
H 	 4.745638 	 1.833710 	 -6.111434 
H 	 4.011637 	 3.257614 	 -6.089005 
H 	 3.325362 	 7.305934 	 2.940137 
H 	 3.028656 	 6.372852 	 1.844117 
H 	 5.875844 	 -0.821668 	 4.588014 
H 	 6.183205 	 -0.015123 	 5.806690 
H 	 6.580634 	 4.374380 	 -2.343343 
H 	 5.112297 	 4.740199 	 -2.497434 
H 	 1.775028 	 4.100803 	 -0.671016 
H 	 1.174871 	 5.417415 	 -0.489132 
H 	 7.321473 	 3.911168 	 1.655735 
H 	 -7.213482 	 3.976306 	 0.137304 
H 	 -2.275397 	 5.033686 	 2.360529 
H 	 -0.784058 	 4.528139 	 2.475314 
H 	 -2.050250 	 1.728188 	 -5.830171 
H 	 -1.952724 	 1.357289 	 7.587757 
H 	 2.166681 	 0.354628 	 5.873785 
H 	 1.432611 	 -0.955700 	 5.767939 
H 	 -3.238291 	 -3.138401 	 3.661871 
H 	 -1.961755 	 -3.192081 	 4.733529 
H 	 1.661989 	 2.559627 	 -5.038790 
H 	 2.348549 	 1.197844 	 -4.843373 
H 	 -7.307804 	 -1.944069 	 -4.551180 
H 	 -6.678790 	 -2.870092 	 -3.507825 
H 	 4.441350 	 -6.430446 	 5.690347 
H 	 3.923086 	 -6.049848 	 4.294732 
H 	 -2.115039 	 -0.804913 	 7.226208 
H 	 -2.981654 	 -0.309744 	 6.086394 
H 	 -0.115969 	 6.284619 	 1.270852 
H 	 -1.214129 	 7.046779 	 0.585037 
H 	 6.413605 	 -4.343122 	 5.194012 
H 	 -7.167023 	 -4.981436 	 4.459588 
H 	 -5.979619 	 -2.564290 	 6.115935 
H 	 -7.197244 	 -2.662259 	 5.098878 
H 	 -2.254595 	 3.017437 	 0.156660 
H 	 -3.543136 	 2.518696 	 -1.362662 
H 	 7.383189 	 -0.111810 	 -0.252865 
H 	 7.220646 	 0.966569 	 -1.180730 
H 	 -5.174292 	 -7.360419 	 -2.454980 
H 	 -6.633432 	 7.429601 	 -1.913057 
H 	 0.620307 	 -3.388830 	 4.608075 
H 	 -0.069842 	 -2.058918 	 4.387811 
H 	 1.853482 	 1.773349 	 0.657163 
H 	 3.144244 	 2.531805 	 1.223282 
H 	 0.220485 	 -1.334761 	 -0.044398 
H 	 -0.829067 	 -2.333625 	 0.218797 
H 	 -1.606838 	 3.435095 	 5.430549 
H 	 -1.911865 	 4.591262 	 4.431547 
H 	 2.551237 	 -4.080843 	 -6.885474 
H 	 1.308204 	 -4.860799 	 -6.322191 
H 	 5.582440 	 6.295211 	 2.486515 
H 	 7.065685 	 5.899272 	 2.795529 
H 	 0.556605 	 -5.884519 	 2.405480 
H 	 0.776413 	 -4.818091 	 1.276716 
H 	 0.069635 	 6.625438 	 3.646264 
H 	 0.670872 	 -7.121249 	 4.495088 
H 	 -0.775335 	 1.574152 	 3.937313 
H 	 -1.287692 	 0.906318 	 5.243426 
H 	 -3.806605 	 -2.382669 	 -3.445284 
H 	 -3.217022 	 -3.718100 	 -3.938303 
H 	 0.116096 	 0.315176 	 -5.011165 
H 	 -0.805155 	 -0.439468 	 -3.931985 
H 	 3.889086 	 -4.826881 	 2.255384 
H 	 2.581917 	 -4.391951 	 2.818674 
H 	 -4.416566 	 -1.547832 	 3.597525 
H 	 -3.995982 	 -1.547612 	 2.084124 
H 	 -5.329415 	 -5.257448 	 2.968534 
H 	 -5.135324 	 -6.502610 	 3.908295 
H 	 -4.230677 	 1.255795 	 -3.782820 
H 	 -2.806259 	 1.263298 	 -3.053421 
H 	 -2.412305 	 -5.412132 	 -3.014876 
H 	 -3.058213 	 -6.263304 	 -4.046951 
H 	 7.131059 	 1.234282 	 -3.854091 
H 	 5.947399 	 2.180361 	 -3.779554 
H 	 5.922547 	 -4.992851 	 2.988380 
H 	 6.885820 	 -6.102000 	 2.494104 
H 	 -4.431236 	 4.667664 	 0.563635 
H 	 -3.872528 	 6.155201 	 0.868091 
H 	 -6.068418 	 -4.734109 	 -1.502349 
H 	 -5.375286 	 -3.382680 	 -1.152207 
H 	 3.544155 	 -2.055408 	 6.695252 
H 	 4.937148 	 -2.259949 	 7.457497 
H 	 -5.728214 	 3.123589 	 6.289770 
H 	 -7.047876 	 2.759723 	 7.062581 
H 	 0.139631 	 6.400656 	 -6.200514 
H 	 -0.093428 	 6.782877 	 -4.745071 
H 	 -5.244071 	 3.842784 	 -4.969143 
H 	 -6.258209 	 4.082230 	 -3.828673 
H 	 -5.062922 	 6.510923 	 -5.028223 
H 	 -6.342695 	 6.158737 	 -5.661753 
H 	 1.339279 	 1.784566 	 -1.890626 
H 	 0.403282 	 2.874608 	 -2.492127 
H 	 1.992706 	 4.107271 	 1.863740 
H 	 1.741118 	 4.868950 	 3.235737 
H 	 5.947514 	 -2.229523 	 -2.862253 
H 	 5.369288 	 -3.434131 	 -1.890857 
H 	 -2.589555 	 6.315306 	 -3.066132 
H 	 -2.778417 	 5.541119 	 -4.483979 
H 	 -4.362678 	 0.376337 	 0.912005 
H 	 -3.113365 	 -0.303264 	 0.286087 
H 	 4.526883 	 1.662242 	 5.253794 
H 	 3.518363 	 2.317179 	 6.268505 
H 	 -5.938322 	 0.588484 	 -4.879799 
H 	 -5.964739 	 -0.233319 	 -3.587191 
H 	 -5.209535 	 -6.699089 	 6.823108 
H 	 -4.667303 	 -6.584414 	 -6.744796 
H 	 6.202458 	 3.382928 	 -6.736021 
H 	 -7.383580 	 3.810943 	 -6.174421 
H 	 4.124444 	 0.995719 	 -1.682017 
H 	 3.273302 	 -0.160530 	 -2.386725 
H 	 -0.454426 	 -4.040654 	 -5.830106 
H 	 -0.590485 	 -5.669411 	 -5.770456 
H 	 2.482297 	 -0.285462 	 0.873426 
H 	 2.297313 	 -0.112718 	 -0.604972 
H 	 2.936426 	 -3.299131 	 -0.459907 
H 	 2.895603 	 -4.764294 	 0.140702 
H 	 4.126972 	 0.347620 	 2.667121 
H 	 3.282288 	 -0.387950 	 3.632419 
H 	 -1.593082 	 5.314374 	 -0.773993 
H 	 -2.925038 	 4.683105 	 -1.242230 
H 	 1.183509 	 -2.354886 	 -1.872189 
H 	 2.303591 	 -2.499647 	 -2.893568 
H 	 1.594014 	 4.635325 	 -6.341457 
H 	 2.345501 	 4.905835 	 -4.966256 
H 	 -5.015967 	 6.018398 	 5.634022 
H 	 -6.405807 	 6.767084 	 5.840294 
H 	 5.820789 	 -1.560309 	 0.590682 
H 	 5.449687 	 -1.505385 	 -0.899940 
H 	 2.582345 	 5.659688 	 -2.524143 
H 	 3.279841 	 6.592040 	 -3.391646 
H 	 -0.234421 	 -4.237280 	 -3.095238 
H 	 -1.019896 	 -3.781445 	 -1.661502 
H 	 2.806264 	 -2.840791 	 -5.191789 
H 	 1.690577 	 -1.931683 	 -5.838471 
H 	 -0.646626 	 0.835467 	 -1.999733 
H 	 -1.264569 	 -0.555934 	 -1.687303 
H 	 -5.573031 	 -0.490615 	 5.441436 
H 	 -4.819299 	 0.751784 	 4.721603 
H 	 -3.902921 	 -2.182939 	 -7.011988 
H 	 -3.424176 	 -1.750808 	 -5.571734 
H 	 -4.395335 	 4.865085 	 -7.017150 
H 	 -3.327254 	 4.563896 	 6.738688 
H 	 -4.896244 	 -5.144098 	 -4.047807 
H 	 -5.109970 	 -5.031891 	 -5.499893 
H 	 -3.255320 	 3.257513 	 -4.628987 
H 	 -2.721249 	 3.584817 	 -5.996247 
H 	 -5.898512 	 -1.026351 	 -1.753365 
H 	 -4.774681 	 -1.085715 	 -0.686377 
H 	 -0.786062 	 2.503801 	 0.049865 
H 	 -4.570373 	 2.290129 	 2.767771 
H 	 7.132403 	 -5.315303 	 -5.359843 
H 	 6.371070 	 -6.615153 	 -5.028661 
H 	 3.223485 	 -4.719377 	 -3.487738 
H 	 2.148223 	 -5.265636 	 -4.363709 
H 	 1.445341 	 1.581603 	 7.575273 
H 	 0.580490 	 1.904863 	 6.299063 
H 	 -2.843625 	 -6.527657 	 1.381319 
H 	 -3.009095 	 -6.305391 	 -0.115547 
H 	 -3.651290 	 2.917795 	 3.937930 
O 	 5.511613 	 -6.728848 	 -0.114555 
O 	 2.396977 	 4.462519 	 4.693020 
O 	 7.143065 	 7.349675 	 6.798952 
O 	 3.566254 	 -6.589590 	 -2.004282 
O 	 6.474422 	 6.422941 	 -5.189259 
O 	 4.479912 	 5.820882 	 -7.160676 
O 	 -6.062696 	 4.264199 	 -1.710105 
O 	 6.442847 	 -0.382855 	 -7.229965 
O 	 -6.202315 	 5.532229 	 3.023342 
O 	 -7.125910 	 -2.910269 	 -6.217213 
O 	 1.114310 	 -5.819304 	 -0.677530 
O 	 -5.762912 	 0.383691 	 -6.531813 
O 	 -0.186722 	 -2.413371 	 -6.449917 
O 	 4.539328 	 -0.005009 	 -5.049576 
O 	 -2.351240 	 -6.538678 	 3.555183 
O 	 4.469137 	 -6.399768 	 -7.037922 
O 	 0.384479 	 5.487232 	 7.053872 
O 	 6.983862 	 2.620801 	 3.862904 
O 	 -5.086023 	 1.823775 	 1.055824 
O 	 -1.844824 	 0.925764 	 2.327748 
O 	 -4.473244 	 -4.483223 	 1.412624 
O 	 -0.596619 	 -1.769847 	 2.334704 
O 	 4.771714 	 5.262723 	 -0.467178 
O 	 7.131723 	 -5.476957 	 -2.131872 
O 	 -0.680841 	 4.076284 	 -3.515613 
O 	 -1.631447 	 -5.875599 	 7.301262 
O 	 -4.388684 	 -3.371726 	 6.671303 
O 	 -1.758028 	 -4.188043 	 0.712923 
O 	 5.505449 	 -2.805719 	 4.397456 
O 	 4.586625 	 2.307852 	 2.244580 
O 	 1.425190 	 -7.062970 	 6.194955 
O 	 4.887655 	 2.792880 	 -5.974211 
O 	 3.672799 	 7.095657 	 2.057265 
O 	 5.817872 	 0.085310 	 4.939077 
O 	 5.904612 	 4.390364 	 -3.012985 
O 	 1.933025 	 4.984073 	 -0.899520 
O 	 6.924828 	 3.734726 	 0.735565 
O 	 -1.472901 	 5.044644 	 2.924614 
O 	 -1.631948 	 2.042591 	 -6.633633 
O 	 2.373188 	 -0.622644 	 5.733814 
O 	 -2.770290 	 -3.633565 	 4.426138 
O 	 1.539406 	 1.588927 	 -5.137174 
O 	 -7.115462 	 -2.036450 	 -3.631221 
O 	 3.995121 	 -6.829970 	 4.906203 
O 	 -2.059741 	 -0.182057 	 6.444320 
O 	 -0.368854 	 6.515483 	 0.393686 
O 	 7.248050 	 -4.808478 	 5.274286 
O 	 -6.650570 	 -2.059974 	 5.615954 
O 	 -3.726601 	 3.099428 	 -0.603786 
O 	 -6.955736 	 0.459030 	 -0.812365 
O 	 -5.911357 	 6.912255 	 -2.332901 
O 	 0.045198 	 -2.714321 	 5.125208 
O 	 2.247616 	 2.626281 	 0.744216 
O 	 -0.448928 	 -1.808605 	 -0.536116 
O 	 -1.892231 	 4.376693 	 5.422742 
O 	 1.964131 	 -4.799696 	 -7.028263 
O 	 6.097898 	 5.784024 	 3.070034 
O 	 0.530503 	 -4.924934 	 2.221111 
O 	 0.330544 	 -7.353317 	 3.621309 
O 	 -0.830369 	 1.712694 	 4.902863 
O 	 -3.118691 	 -2.760777 	 -4.012579 
O 	 -0.570186 	 -0.387127 	 -4.863972 
O 	 3.529714 	 -4.492856 	 3.093548 
O 	 -4.233966 	 -2.125377 	 2.858296 
O 	 -5.822794 	 -5.914072 	 3.466305 
O 	 -3.448302 	 1.824328 	 -3.541143 
O 	 -3.286162 	 -5.816970 	 -3.226476 
O 	 6.236221 	 1.281932 	 -3.458867 
O 	 6.263585 	 -5.424379 	 2.150868 
O 	 -4.233126 	 5.335235 	 1.257908 
O 	 -5.191028 	 -4.367841 	 -1.153226 
O 	 4.309313 	 -2.702191 	 6.799298 
O 	 -6.385096 	 2.399322 	 6.344188 
O 	 0.227122 	 7.172904 	 -5.593018 
O 	 -6.146618 	 4.150340 	 -4.827183 
O 	 -5.635928 	 6.853194 	 -5.741086 
O 	 0.467565 	 2.183693 	 -1.782504 
O 	 1.521169 	 4.920959 	 2.240628 
O 	 5.211661 	 -2.550175 	 -2.348508 
O 	 -2.634261 	 6.453158 	 -4.070669 
O 	 -4.007842 	 -0.514582 	 0.639150 
O 	 4.064541 	 2.498683 	 5.505670 
O 	 -5.936661 	 0.725360 	 -3.851220 
O 	 -4.890494 	 -5.999389 	 7.406322 
O 	 7.030428 	 3.889226 	 -6.983555 
O 	 3.242826 	 0.796513 	 -2.162636 
O 	 -0.177456 	 -4.898902 	 -5.396530 
O 	 1.763952 	 -0.181887 	 0.210664 
O 	 3.352694 	 -3.888369 	 0.223472 
O 	 3.438131 	 -0.341438 	 2.690263 
O 	 -2.243870 	 5.355486 	 -1.499119 
O 	 2.126581 	 -2.156152 	 -1.988005 
O 	 2.334882 	 4.369948 	 -5.756664 
O 	 -5.529586 	 6.853850 	 5.488359 
O 	 5.700345 	 -0.870224 	 -0.107132 
O 	 2.935701 	 5.695716 	 -3.465050 
O 	 -0.652068 	 -4.528385 	 -2.232455 
O 	 2.601275 	 -1.934543 	 -5.484060 
O 	 -1.331178 	 0.186408 	 -2.314996 
O 	 -4.736705 	 -0.175652 	 5.024296 
O 	 -3.673265 	 -1.382697 	 -6.437976 
O 	 -4.321685 	 4.672025 	 6.931977 
O 	 -5.550647 	 -4.893032 	 -4.677469 
O 	 -3.256727 	 3.992844 	 -5.289862 
O 	 -5.219030 	 -1.642684 	 -1.411846 
O 	 -1.361064 	 2.963070 	 0.696763 
O 	 6.245316 	 -5.621726 	 -5.079479 
O 	 2.596068 	 -4.441444 	 -4.174774 
O 	 1.517192 	 1.830924 	 6.595422 
O 	 -2.845903 	 -7.031010 	 0.528450 
O 	 -4.008539 	 2.098901 	 3.595076 
K 	 5.689100 	 4.878056 	 5.430920 
