333
conformation = 12
H 	 4.689071 	 -7.394939 	 -3.190624 
H 	 5.155695 	 -6.116923 	 -2.596445 
H 	 1.253552 	 4.815879 	 2.017062 
H 	 2.332988 	 3.741799 	 1.450643 
H 	 6.982328 	 -7.193355 	 4.330075 
H 	 6.584729 	 -6.416394 	 3.063778 
H 	 2.285002 	 -6.433549 	 -4.808507 
H 	 3.821258 	 -6.285448 	 -4.770952 
H 	 5.759556 	 6.034572 	 7.115847 
H 	 5.243880 	 6.391319 	 5.737819 
H 	 3.338065 	 5.621994 	 4.963925 
H 	 3.826529 	 6.998653 	 4.478073 
H 	 -5.747838 	 3.929974 	 -4.851843 
H 	 -6.228657 	 5.335512 	 -5.133592 
H 	 5.302929 	 -0.121158 	 5.052439 
H 	 6.818635 	 0.256292 	 4.559747 
H 	 -6.000988 	 5.727857 	 -1.012536 
H 	 -6.474717 	 6.465122 	 0.294864 
H 	 6.834749 	 -2.084206 	 4.682043 
H 	 -6.765924 	 -2.933777 	 4.947181 
H 	 0.147817 	 -6.433537 	 -3.606558 
H 	 -0.156269 	 -5.225178 	 -4.524211 
H 	 -5.583629 	 -0.153470 	 5.011826 
H 	 -6.197010 	 1.153862 	 4.201406 
H 	 -0.887698 	 -2.015627 	 4.142921 
H 	 -1.020500 	 -1.524297 	 5.652725 
H 	 3.440609 	 -0.581011 	 6.521406 
H 	 4.475251 	 0.523685 	 7.324116 
H 	 -1.901146 	 -6.456601 	 0.364712 
H 	 -3.069664 	 -5.508865 	 0.605712 
H 	 3.090088 	 -5.741208 	 4.560609 
H 	 4.403045 	 -5.858078 	 5.316618 
H 	 0.078028 	 6.508568 	 3.243031 
H 	 -0.864766 	 5.252409 	 3.143336 
H 	 7.200288 	 2.740725 	 1.139631 
H 	 5.968938 	 2.027908 	 0.649541 
H 	 -5.049594 	 2.583839 	 -3.043662 
H 	 -6.412307 	 1.766742 	 -2.723772 
H 	 -3.183255 	 1.399251 	 -0.676916 
H 	 -2.066650 	 1.805552 	 -1.642409 
H 	 -5.421708 	 -4.120054 	 -2.806886 
H 	 -5.084306 	 -3.501297 	 -1.370201 
H 	 -1.738873 	 -0.880895 	 -0.961425 
H 	 -1.569853 	 -2.393011 	 -1.221853 
H 	 4.687282 	 5.016337 	 -2.999128 
H 	 3.343714 	 5.433604 	 -3.709020 
H 	 6.247454 	 -5.573842 	 -6.313910 
H 	 6.127564 	 -5.753149 	 -4.757909 
H 	 -1.426978 	 4.523405 	 7.078574 
H 	 -1.868385 	 4.633794 	 -6.385341 
H 	 -1.948390 	 -6.644716 	 4.176745 
H 	 -3.094120 	 -5.656266 	 3.646789 
H 	 -4.251638 	 -3.320788 	 2.503176 
H 	 -5.106529 	 -4.124834 	 3.504559 
H 	 -1.852498 	 -4.603440 	 -1.939809 
H 	 -3.254615 	 -4.147868 	 -2.459540 
H 	 4.462057 	 -2.950377 	 0.266273 
H 	 4.399717 	 -2.521763 	 1.785115 
H 	 4.646462 	 2.657564 	 -1.961132 
H 	 4.299905 	 3.181544 	 -0.518389 
H 	 1.074720 	 -6.035725 	 3.309803 
H 	 1.900838 	 -7.012141 	 2.537660 
H 	 4.235683 	 2.045619 	 5.392875 
H 	 3.520099 	 3.393075 	 5.536639 
H 	 2.825848 	 -7.450113 	 -0.398777 
H 	 2.524963 	 6.509271 	 -1.518434 
H 	 5.173366 	 -0.657103 	 1.157583 
H 	 5.653400 	 0.139552 	 2.522495 
H 	 6.175936 	 4.506698 	 -5.721924 
H 	 4.718877 	 4.828250 	 -5.776386 
H 	 1.259588 	 4.176208 	 -4.026173 
H 	 0.626852 	 5.679304 	 -3.967623 
H 	 6.790629 	 3.951398 	 -1.756028 
H 	 7.128524 	 4.251855 	 -3.247980 
H 	 -2.715822 	 5.253692 	 -1.040273 
H 	 -1.343932 	 4.619407 	 -0.953294 
H 	 -2.605059 	 1.912143 	 5.741082 
H 	 -2.498597 	 1.600413 	 4.279035 
H 	 1.785898 	 0.498022 	 2.444473 
H 	 0.923959 	 -0.732938 	 2.377584 
H 	 -3.621734 	 -2.868738 	 0.396493 
H 	 -2.343935 	 -3.127846 	 1.364639 
H 	 1.215260 	 2.689019 	 6.543931 
H 	 1.903582 	 1.291993 	 6.755539 
H 	 7.218045 	 -1.825128 	 6.901306 
H 	 -7.194305 	 -2.797650 	 -6.890976 
H 	 3.940272 	 -6.197083 	 2.323056 
H 	 3.420889 	 -5.930631 	 0.879144 
H 	 -2.638012 	 -0.530425 	 3.858840 
H 	 -3.498814 	 -0.092157 	 2.743111 
H 	 -0.544597 	 6.492466 	 -2.034263 
H 	 -1.697490 	 7.187045 	 -2.997273 
H 	 5.900329 	 -4.111255 	 1.826902 
H 	 7.161161 	 -4.740876 	 1.013860 
H 	 -6.441549 	 -2.491672 	 2.635225 
H 	 7.183207 	 -2.511116 	 1.829947 
H 	 -2.700910 	 3.183164 	 -3.211845 
H 	 -4.057361 	 2.759105 	 -4.770747 
H 	 6.854086 	 -0.071410 	 -3.747454 
H 	 6.782822 	 1.191436 	 -4.643491 
H 	 -5.705151 	 -7.143434 	 -5.824727 
H 	 -7.179063 	 -7.253056 	 -5.404752 
H 	 0.030308 	 -3.257903 	 1.382287 
H 	 -0.712872 	 -1.897743 	 1.053707 
H 	 1.271007 	 1.896233 	 -2.712654 
H 	 2.537537 	 2.546694 	 -2.110139 
H 	 -0.179959 	 -1.093343 	 -3.407205 
H 	 -1.405838 	 -2.155177 	 -3.244141 
H 	 -2.158157 	 3.571105 	 1.987451 
H 	 -2.283187 	 4.905408 	 1.144487 
H 	 2.100478 	 -3.873976 	 4.680767 
H 	 0.779241 	 -4.653244 	 5.251087 
H 	 5.050882 	 6.578882 	 -0.892726 
H 	 6.556160 	 5.942239 	 -0.493486 
H 	 -0.026646 	 -5.739194 	 -1.057976 
H 	 0.322002 	 -4.610036 	 -2.059066 
H 	 -0.536658 	 6.824946 	 0.215917 
H 	 0.161715 	 -6.958666 	 1.189283 
H 	 -1.278088 	 1.744453 	 0.568642 
H 	 -1.794940 	 1.118943 	 1.875468 
H 	 -4.161982 	 -2.078089 	 -6.699343 
H 	 -3.679786 	 -3.544369 	 -7.299201 
H 	 -0.394475 	 0.492618 	 6.642016 
H 	 -1.298264 	 -0.225005 	 -7.250827 
H 	 3.428371 	 -4.672208 	 -1.067422 
H 	 2.049841 	 -4.305477 	 -0.295943 
H 	 -4.954815 	 -1.262360 	 0.252619 
H 	 -4.462441 	 -1.326212 	 -1.240836 
H 	 -5.769979 	 -5.166294 	 -0.448055 
H 	 -5.682412 	 -6.284667 	 0.641694 
H 	 -4.686683 	 1.401805 	 -7.143956 
H 	 -3.218928 	 1.377150 	 -6.579088 
H 	 -2.941878 	 -5.222435 	 -6.332511 
H 	 -3.575161 	 -6.188207 	 -7.400429 
H 	 6.666839 	 1.388023 	 -7.134446 
H 	 5.400427 	 2.369406 	 -7.088357 
H 	 5.463924 	 -4.794249 	 -0.426683 
H 	 6.363521 	 -5.944848 	 -0.846774 
H 	 -4.964222 	 4.839781 	 -2.777333 
H 	 -4.348823 	 6.307630 	 -2.570743 
H 	 -6.451497 	 -4.631658 	 -4.855774 
H 	 -5.807018 	 -3.204054 	 -4.561419 
H 	 3.130103 	 -1.837398 	 3.389915 
H 	 4.402837 	 -2.057537 	 4.009460 
H 	 -6.231132 	 3.325356 	 2.976903 
H 	 7.405811 	 2.945977 	 3.642163 
H 	 -0.310120 	 6.575809 	 5.357453 
H 	 -0.570472 	 7.077324 	 6.839342 
H 	 -5.672638 	 4.109656 	 6.645558 
H 	 -6.807229 	 4.353573 	 -7.248297 
H 	 -5.588678 	 6.641747 	 6.508448 
H 	 -6.829444 	 6.339712 	 5.863815 
H 	 0.866103 	 1.936062 	 -5.278277 
H 	 -0.122151 	 3.032121 	 -5.864620 
H 	 1.236635 	 4.263928 	 -1.500513 
H 	 1.257812 	 5.043299 	 -0.144522 
H 	 5.474085 	 -2.235124 	 -6.327032 
H 	 4.933293 	 -3.171741 	 -5.231691 
H 	 -3.163920 	 6.476801 	 -6.505144 
H 	 -3.156611 	 5.753616 	 7.102170 
H 	 -4.871818 	 0.628603 	 -2.447015 
H 	 -3.572692 	 -0.132031 	 -2.936858 
H 	 4.067782 	 1.863804 	 1.817981 
H 	 3.069723 	 2.484886 	 2.947534 
H 	 -6.518699 	 0.759641 	 6.698796 
H 	 -6.560889 	 -0.005128 	 -6.917886 
H 	 -5.631891 	 -6.648459 	 3.464268 
H 	 -5.190873 	 -6.275225 	 4.909441 
H 	 5.763087 	 3.494858 	 4.667215 
H 	 7.080436 	 3.914049 	 5.424787 
H 	 3.625009 	 1.175987 	 -5.175030 
H 	 2.826072 	 0.038822 	 -5.692851 
H 	 -0.950534 	 -3.859501 	 5.740504 
H 	 -1.129026 	 -5.470779 	 5.738196 
H 	 2.004651 	 -0.034920 	 -2.439655 
H 	 1.928452 	 0.130582 	 -3.900148 
H 	 2.342717 	 -3.135072 	 -3.801651 
H 	 2.471251 	 -4.546844 	 -3.166879 
H 	 3.569998 	 0.569938 	 -0.706156 
H 	 2.691555 	 -0.118265 	 0.293927 
H 	 -1.975641 	 5.578700 	 -4.217694 
H 	 -3.399889 	 4.912696 	 -4.405259 
H 	 0.650512 	 -2.186640 	 -5.169802 
H 	 1.859837 	 -2.190686 	 -6.210673 
H 	 1.111911 	 4.831202 	 5.235295 
H 	 1.891815 	 5.178597 	 6.635149 
H 	 -5.520192 	 6.168764 	 2.286092 
H 	 -6.960242 	 6.935440 	 2.474076 
H 	 5.298696 	 -1.413612 	 -2.829530 
H 	 4.879843 	 -1.144472 	 -4.224082 
H 	 2.095045 	 5.806199 	 -5.917802 
H 	 2.666470 	 6.865131 	 -6.805367 
H 	 -0.734294 	 -3.991452 	 -6.385366 
H 	 -1.516219 	 -3.584068 	 -5.167876 
H 	 2.303676 	 -2.625553 	 6.420081 
H 	 1.190948 	 -1.792972 	 5.717675 
H 	 -1.130070 	 1.022506 	 -5.420010 
H 	 -1.761721 	 -0.414242 	 -5.036845 
H 	 -6.103278 	 -0.351474 	 2.027603 
H 	 -5.312490 	 0.926631 	 1.345474 
H 	 -4.371317 	 -1.952971 	 4.532541 
H 	 -3.851987 	 -1.614737 	 5.978918 
H 	 -4.815630 	 4.963006 	 4.582955 
H 	 -3.896101 	 4.793250 	 3.423136 
H 	 -5.322036 	 -5.025397 	 -7.320798 
H 	 -5.592145 	 -4.892497 	 6.020587 
H 	 -3.697451 	 3.461153 	 6.979985 
H 	 -3.319794 	 3.748251 	 5.462264 
H 	 -6.335759 	 -0.857189 	 -5.156002 
H 	 -5.190418 	 -0.924738 	 -4.132764 
H 	 -1.119684 	 2.912852 	 -3.347431 
H 	 -5.093036 	 2.487291 	 -0.506867 
H 	 6.639055 	 -5.077662 	 6.208072 
H 	 5.856413 	 -6.431927 	 6.487047 
H 	 2.725837 	 -4.599838 	 -6.826387 
H 	 1.520745 	 -5.044160 	 7.083677 
H 	 0.978790 	 1.819100 	 4.150385 
H 	 0.101074 	 2.066862 	 2.840873 
H 	 -3.293471 	 -6.245144 	 -2.049076 
H 	 -3.466482 	 -6.108212 	 -3.501849 
H 	 -4.143174 	 3.103756 	 0.659826 
O 	 5.011476 	 -6.526642 	 -3.479665 
O 	 1.905292 	 4.662412 	 1.331688 
O 	 6.683217 	 -7.365118 	 3.379704 
O 	 3.050037 	 -6.429120 	 -5.380330 
O 	 5.968759 	 6.630454 	 6.351817 
O 	 3.980963 	 6.010425 	 4.370086 
O 	 -6.567071 	 4.404485 	 -5.066648 
O 	 5.967226 	 -0.215951 	 4.305039 
O 	 -6.696671 	 5.713600 	 -0.336491 
O 	 7.264243 	 -2.706502 	 5.304598 
O 	 0.600266 	 -5.674040 	 -4.055560 
O 	 -6.251667 	 0.552088 	 4.999825 
O 	 -0.660908 	 -2.234302 	 5.081219 
O 	 4.050859 	 0.218144 	 6.477415 
O 	 -2.867191 	 -6.334626 	 0.158035 
O 	 3.971011 	 -6.209496 	 4.511700 
O 	 -0.099655 	 5.670795 	 3.713765 
O 	 6.500121 	 2.826618 	 0.482111 
O 	 -5.567545 	 1.992277 	 -2.269095 
O 	 -2.293759 	 1.120383 	 -1.022293 
O 	 -5.005582 	 -4.334802 	 -1.907643 
O 	 -1.097251 	 -1.582183 	 -1.006555 
O 	 4.294445 	 5.438137 	 -3.822371 
O 	 6.644648 	 -5.304468 	 -5.478062 
O 	 -1.158558 	 4.253929 	 -6.915607 
O 	 -2.143051 	 -5.703421 	 3.942054 
O 	 -4.885744 	 -3.164985 	 3.305721 
O 	 -2.256562 	 -4.053429 	 -2.649873 
O 	 5.004301 	 -2.664988 	 1.044887 
O 	 4.061694 	 2.500254 	 -1.161708 
O 	 0.953273 	 -6.875829 	 2.849995 
O 	 4.412749 	 2.985159 	 5.573890 
O 	 3.134054 	 7.251585 	 -1.308332 
O 	 5.318657 	 0.239125 	 1.556020 
O 	 5.429887 	 4.598583 	 -6.398855 
O 	 1.443293 	 5.176425 	 -4.250910 
O 	 6.443034 	 3.934223 	 -2.636694 
O 	 -1.929013 	 5.249554 	 -0.459025 
O 	 -2.129848 	 2.231228 	 4.899929 
O 	 1.844599 	 -0.477142 	 2.378544 
O 	 -3.232237 	 -3.470505 	 1.071293 
O 	 1.050434 	 1.733795 	 6.404934 
O 	 7.290297 	 -1.890431 	 -6.975663 
O 	 3.513928 	 -6.622448 	 1.562648 
O 	 -2.570778 	 0.016040 	 3.053063 
O 	 -0.862754 	 6.675223 	 -2.980424 
O 	 6.758489 	 -4.605804 	 1.933188 
O 	 -7.121119 	 -1.867198 	 2.257387 
O 	 -4.238757 	 3.270719 	 -3.955493 
O 	 7.461268 	 0.639000 	 -4.155919 
O 	 -6.422626 	 7.109314 	 -5.711582 
O 	 -0.419486 	 -2.531849 	 1.743455 
O 	 1.762499 	 2.789057 	 -2.618309 
O 	 -0.918670 	 -1.626591 	 -3.889088 
O 	 -2.366324 	 4.537248 	 2.065138 
O 	 1.488406 	 -4.648970 	 4.502316 
O 	 5.600716 	 5.988937 	 -0.264944 
O 	 -0.006460 	 -4.751922 	 -1.142164 
O 	 -0.154476 	 -7.154455 	 0.242161 
O 	 -1.298052 	 1.905671 	 1.546484 
O 	 -3.609180 	 -2.568191 	 -7.370609 
O 	 -1.063689 	 -0.212666 	 6.660688 
O 	 3.032721 	 -4.313589 	 -0.254394 
O 	 -4.734606 	 -1.936548 	 -0.498382 
O 	 -6.298165 	 -5.761912 	 0.153680 
O 	 -3.937975 	 1.989690 	 -6.896693 
O 	 -3.791472 	 -5.639934 	 -6.598183 
O 	 5.729955 	 1.499370 	 -6.824134 
O 	 5.777394 	 -5.251129 	 -1.201978 
O 	 -4.706111 	 5.504754 	 -2.107847 
O 	 -5.673895 	 -4.187288 	 -4.529908 
O 	 3.807810 	 -2.526588 	 3.421202 
O 	 -6.867012 	 2.567429 	 3.001966 
O 	 -0.290432 	 7.361859 	 5.942900 
O 	 -6.641390 	 4.347344 	 6.704564 
O 	 -6.144169 	 7.028758 	 5.797830 
O 	 -0.028437 	 2.341906 	 -5.172876 
O 	 1.045826 	 5.117184 	 -1.086575 
O 	 4.680277 	 -2.368213 	 -5.687406 
O 	 -3.140535 	 6.642320 	 -7.442141 
O 	 -4.507309 	 -0.323924 	 -2.747155 
O 	 3.564677 	 2.654616 	 2.099055 
O 	 -6.442278 	 0.898446 	 -7.247507 
O 	 -5.401327 	 -5.836776 	 4.049676 
O 	 6.548326 	 4.084859 	 4.556214 
O 	 2.769659 	 0.998176 	 -5.510331 
O 	 -0.650895 	 -4.698276 	 6.156088 
O 	 1.305033 	 -0.000633 	 -3.142914 
O 	 2.833597 	 -3.663072 	 -3.146711 
O 	 2.924528 	 -0.174223 	 -0.684878 
O 	 -2.733336 	 5.520543 	 -4.864420 
O 	 1.595762 	 -1.921053 	 -5.324562 
O 	 1.864677 	 4.563360 	 5.791765 
O 	 -5.979380 	 7.009244 	 2.080887 
O 	 5.226993 	 -0.691987 	 -3.457383 
O 	 2.427602 	 5.886756 	 -6.827924 
O 	 -1.167184 	 -4.346107 	 -5.613658 
O 	 2.121066 	 -1.726906 	 6.054473 
O 	 -1.806704 	 0.343579 	 -5.674841 
O 	 -5.257561 	 -0.000554 	 1.659699 
O 	 -4.146812 	 -1.206999 	 5.113104 
O 	 -4.822330 	 4.863082 	 3.606655 
O 	 -6.029576 	 -4.737383 	 6.898559 
O 	 -3.766835 	 4.156071 	 6.251182 
O 	 -5.702782 	 -1.468240 	 -4.763049 
O 	 -1.845311 	 3.149605 	 -2.717630 
O 	 5.759551 	 -5.446173 	 6.440149 
O 	 2.107946 	 -4.289263 	 7.375036 
O 	 1.007239 	 2.005046 	 3.219490 
O 	 -3.319838 	 -6.818794 	 -2.845256 
O 	 -4.533343 	 2.284450 	 0.255792 
K 	 5.188000 	 5.046659 	 2.058490 
