333
conformation = 58
H 	 4.928593 	 -7.486098 	 -3.537585 
H 	 5.144780 	 -6.157431 	 -2.563905 
H 	 1.420796 	 4.458543 	 2.222797 
H 	 2.535211 	 3.852180 	 1.381954 
H 	 6.625400 	 7.348835 	 3.971133 
H 	 6.681515 	 -6.348248 	 2.886675 
H 	 2.107910 	 -6.402538 	 -5.074988 
H 	 3.557299 	 -6.697376 	 -4.846062 
H 	 5.782636 	 6.112457 	 7.209006 
H 	 5.287470 	 6.349991 	 5.734590 
H 	 3.280639 	 5.548592 	 4.793300 
H 	 3.862974 	 7.008790 	 4.413783 
H 	 -5.750186 	 3.909965 	 -4.683917 
H 	 -6.628363 	 5.153928 	 -5.108334 
H 	 5.497250 	 0.102105 	 5.056016 
H 	 6.932076 	 -0.108709 	 4.602862 
H 	 -5.964683 	 5.527192 	 -0.961681 
H 	 -6.264092 	 5.909852 	 0.481479 
H 	 6.867746 	 -1.831633 	 4.693846 
H 	 -6.823004 	 -2.714803 	 4.734225 
H 	 0.132474 	 -6.791074 	 -3.787028 
H 	 0.006511 	 -5.456172 	 -4.667941 
H 	 -5.413493 	 -0.028196 	 4.710869 
H 	 -6.197772 	 1.226356 	 4.220846 
H 	 -0.824375 	 -2.203646 	 4.121767 
H 	 -0.957719 	 -1.561321 	 5.531110 
H 	 3.623395 	 -0.455514 	 6.536713 
H 	 4.666071 	 0.593747 	 7.144033 
H 	 -2.054225 	 -6.496960 	 0.105143 
H 	 -3.023106 	 -5.281621 	 0.103727 
H 	 3.143480 	 -5.753769 	 4.933591 
H 	 4.659622 	 -5.797484 	 5.099671 
H 	 0.449184 	 6.278517 	 3.349348 
H 	 -0.908614 	 5.394315 	 3.285261 
H 	 7.409927 	 3.130798 	 0.876004 
H 	 6.543251 	 1.927306 	 0.622152 
H 	 -4.985088 	 2.509902 	 -2.779965 
H 	 -6.395441 	 1.876946 	 -2.482472 
H 	 -2.843793 	 1.514387 	 -0.613928 
H 	 -1.698100 	 1.687453 	 -1.592729 
H 	 -5.447224 	 -4.450068 	 -2.679673 
H 	 -5.550815 	 -3.776406 	 -1.186325 
H 	 -1.394539 	 -0.712492 	 -0.849141 
H 	 -1.733084 	 -2.173061 	 -1.166363 
H 	 4.777633 	 4.699035 	 -3.260557 
H 	 3.449464 	 5.356107 	 -3.684703 
H 	 6.199731 	 -5.091257 	 -6.072096 
H 	 6.099420 	 -5.766693 	 -4.639162 
H 	 -1.608224 	 3.748796 	 7.143470 
H 	 -1.475044 	 4.553874 	 -6.427758 
H 	 -2.256128 	 -6.652564 	 4.476926 
H 	 -3.164691 	 -5.643784 	 3.744372 
H 	 -4.065383 	 -3.267055 	 2.576476 
H 	 -5.089483 	 -4.042997 	 3.657929 
H 	 -1.618341 	 -4.603513 	 -2.095001 
H 	 -3.184463 	 -4.290127 	 -2.141209 
H 	 4.167588 	 -3.136093 	 0.504482 
H 	 4.608759 	 -2.857610 	 1.914830 
H 	 4.894678 	 2.392924 	 -1.900677 
H 	 4.372640 	 3.060015 	 -0.689654 
H 	 1.061627 	 -6.162395 	 3.396534 
H 	 2.070728 	 -6.902514 	 2.416621 
H 	 4.106785 	 2.094196 	 5.946034 
H 	 3.695040 	 3.634768 	 5.837764 
H 	 3.067287 	 7.116094 	 -0.357466 
H 	 2.220360 	 6.364053 	 -1.380274 
H 	 4.843442 	 -0.646110 	 1.072514 
H 	 5.524261 	 -0.211478 	 2.362027 
H 	 6.530685 	 4.386341 	 -6.086772 
H 	 5.140358 	 5.104318 	 -5.707234 
H 	 1.576711 	 4.348451 	 -3.683829 
H 	 0.795999 	 5.741357 	 -3.815629 
H 	 7.080864 	 3.716846 	 -1.881998 
H 	 7.056561 	 3.921320 	 -3.479115 
H 	 -2.643322 	 5.666675 	 -0.806432 
H 	 -1.652737 	 4.561467 	 -1.218141 
H 	 -1.649386 	 1.522341 	 5.405837 
H 	 -2.421429 	 1.939091 	 4.024092 
H 	 1.356141 	 -0.132648 	 3.028413 
H 	 1.123431 	 -1.467105 	 2.261434 
H 	 -3.298643 	 -3.039978 	 0.524619 
H 	 -2.137438 	 -3.182893 	 1.521286 
H 	 1.316892 	 2.415691 	 6.273548 
H 	 2.073127 	 1.101882 	 6.527109 
H 	 7.214921 	 -2.692404 	 7.060155 
H 	 -7.000149 	 -2.740031 	 -6.444347 
H 	 4.010611 	 -6.386761 	 2.566073 
H 	 3.800809 	 -5.679714 	 1.245751 
H 	 -3.043593 	 -0.406845 	 3.758572 
H 	 -3.512569 	 -0.015942 	 2.319260 
H 	 -0.599935 	 6.018187 	 -2.357332 
H 	 -1.579967 	 7.119930 	 -2.782365 
H 	 6.320545 	 -4.293825 	 1.273594 
H 	 -7.225762 	 -4.962266 	 1.721930 
H 	 -6.442009 	 -2.639481 	 2.570148 
H 	 7.116794 	 -2.117709 	 1.824649 
H 	 -2.648723 	 3.082533 	 -3.328079 
H 	 -4.166263 	 2.702974 	 -4.749207 
H 	 6.617559 	 0.584500 	 -3.720417 
H 	 7.509091 	 1.279630 	 -4.787221 
H 	 -5.606671 	 -7.223000 	 -5.764470 
H 	 -7.123571 	 -6.969803 	 -5.858036 
H 	 0.363687 	 -3.266131 	 1.782058 
H 	 -0.227718 	 -2.396639 	 0.695921 
H 	 1.476769 	 1.682790 	 -2.795416 
H 	 2.552348 	 2.736550 	 -2.307023 
H 	 -0.039907 	 -1.223579 	 -3.308148 
H 	 -1.078672 	 -2.483925 	 -3.376209 
H 	 -1.668677 	 3.590728 	 2.029623 
H 	 -2.198679 	 4.786333 	 1.239358 
H 	 1.791658 	 -3.927041 	 4.096299 
H 	 0.924208 	 -4.765098 	 5.165052 
H 	 4.952868 	 6.502338 	 -0.842829 
H 	 6.437648 	 6.081913 	 -0.544307 
H 	 0.033480 	 -5.633551 	 -0.593879 
H 	 0.344091 	 -4.971910 	 -1.993015 
H 	 0.104799 	 6.828546 	 -0.072071 
H 	 0.237374 	 -7.062087 	 1.156010 
H 	 -1.293558 	 1.569658 	 0.670018 
H 	 -1.609599 	 1.288846 	 2.196224 
H 	 -4.004312 	 -2.037480 	 -6.522414 
H 	 -4.194544 	 -3.188196 	 -7.326253 
H 	 -0.225677 	 0.282597 	 6.626412 
H 	 -1.313873 	 -0.317696 	 -7.283477 
H 	 2.965701 	 -4.089958 	 -1.029400 
H 	 2.032224 	 -4.316038 	 0.036364 
H 	 -5.051896 	 -1.274660 	 0.331630 
H 	 -4.774762 	 -1.294939 	 -1.271777 
H 	 -5.710634 	 -5.637921 	 -0.383141 
H 	 -5.704090 	 -6.676161 	 0.822503 
H 	 -4.755878 	 1.568663 	 -6.859542 
H 	 -3.252463 	 1.130973 	 -6.464174 
H 	 -3.113269 	 -5.279555 	 -6.079269 
H 	 -3.342592 	 -6.634791 	 -6.892079 
H 	 6.591947 	 1.507630 	 -7.113242 
H 	 5.573747 	 2.669172 	 -6.957857 
H 	 5.460028 	 -4.786888 	 -0.382537 
H 	 6.742105 	 -5.644982 	 -0.732313 
H 	 -4.172463 	 4.737046 	 -2.809193 
H 	 -4.293440 	 6.257235 	 -2.718566 
H 	 -6.452341 	 -4.532850 	 -4.872315 
H 	 -5.669516 	 -3.297559 	 -4.538172 
H 	 3.188211 	 -1.821176 	 3.105027 
H 	 4.402055 	 -2.316438 	 4.094193 
H 	 -5.777789 	 2.949558 	 3.150349 
H 	 7.637478 	 2.979261 	 3.705183 
H 	 -0.436644 	 6.638249 	 5.313110 
H 	 -0.960618 	 7.103546 	 6.743406 
H 	 -5.673590 	 4.248285 	 6.439974 
H 	 -6.552473 	 4.373710 	 -7.156832 
H 	 -5.615264 	 7.072531 	 6.629893 
H 	 -7.053135 	 6.909759 	 6.067600 
H 	 0.935966 	 2.008147 	 -5.468784 
H 	 -0.223862 	 2.832544 	 -6.069818 
H 	 1.210956 	 4.329598 	 -1.531551 
H 	 1.174453 	 4.884921 	 -0.133726 
H 	 5.499419 	 -2.483072 	 -5.951780 
H 	 4.400719 	 -3.243821 	 -5.066362 
H 	 -3.056332 	 6.053527 	 -6.711150 
H 	 -3.488873 	 6.162269 	 6.655720 
H 	 -4.864631 	 0.489334 	 -2.520474 
H 	 -3.378175 	 -0.100962 	 -2.550745 
H 	 4.235206 	 1.602137 	 1.793662 
H 	 2.930928 	 2.090305 	 2.393280 
H 	 -6.353149 	 0.965193 	 6.571325 
H 	 -6.539349 	 -0.163837 	 -7.289138 
H 	 -5.195341 	 -6.281987 	 3.121324 
H 	 -5.964300 	 -6.643086 	 4.488448 
H 	 5.986559 	 3.651677 	 5.135976 
H 	 7.363015 	 4.501636 	 5.131005 
H 	 3.758904 	 1.258586 	 -5.949967 
H 	 2.677705 	 0.107847 	 -5.669679 
H 	 -0.769800 	 -3.776161 	 5.835549 
H 	 -1.081696 	 -5.245810 	 5.895384 
H 	 1.795373 	 -0.349450 	 -2.080254 
H 	 2.198042 	 0.066979 	 -3.654221 
H 	 2.432487 	 -2.694681 	 -3.711050 
H 	 2.603389 	 -4.206055 	 -3.867242 
H 	 3.188316 	 0.650220 	 -0.726056 
H 	 2.279571 	 -0.405321 	 0.052895 
H 	 -2.055255 	 5.697175 	 -4.169962 
H 	 -3.094691 	 4.528333 	 -4.605459 
H 	 0.552534 	 -1.652050 	 -5.018622 
H 	 1.571825 	 -2.535053 	 -5.709360 
H 	 1.270348 	 4.808192 	 5.346378 
H 	 2.074555 	 5.214775 	 6.638229 
H 	 -5.424281 	 6.175207 	 2.639636 
H 	 -6.681453 	 7.062826 	 2.279424 
H 	 4.995789 	 -1.384838 	 -2.676161 
H 	 5.112769 	 -1.272458 	 -4.186517 
H 	 2.008637 	 5.308976 	 -6.174681 
H 	 2.652991 	 6.768942 	 -6.421090 
H 	 -1.313816 	 -4.448355 	 -6.731136 
H 	 -1.282998 	 -3.381705 	 -5.615700 
H 	 2.280247 	 -2.575639 	 6.555875 
H 	 1.349259 	 -1.712909 	 5.678430 
H 	 -1.067025 	 0.843845 	 -5.446743 
H 	 -1.537766 	 -0.541106 	 -5.011400 
H 	 -6.116919 	 -0.488931 	 2.059235 
H 	 -5.507133 	 0.737729 	 1.308765 
H 	 -4.252668 	 -2.052170 	 4.667439 
H 	 -3.851389 	 -1.580753 	 6.093972 
H 	 -4.826760 	 5.331741 	 4.562398 
H 	 -3.966091 	 4.665742 	 3.354538 
H 	 -5.158590 	 -5.275661 	 -7.274714 
H 	 -5.723452 	 -4.752767 	 6.231258 
H 	 -3.882925 	 3.265375 	 7.026511 
H 	 -3.336269 	 3.408588 	 5.648774 
H 	 -6.302610 	 -1.102625 	 -4.694684 
H 	 -4.965131 	 -1.368552 	 -4.101527 
H 	 -1.126253 	 3.069537 	 -3.763988 
H 	 -5.042942 	 2.305252 	 -0.479743 
H 	 6.694439 	 -4.999051 	 6.394816 
H 	 6.145411 	 -6.473328 	 6.445606 
H 	 2.410239 	 -5.341467 	 -6.996642 
H 	 1.272161 	 -4.662774 	 7.167627 
H 	 0.334738 	 2.102865 	 3.881554 
H 	 0.464222 	 2.052428 	 2.409696 
H 	 -3.236171 	 -6.595092 	 -1.986225 
H 	 -3.142195 	 -6.008541 	 -3.499003 
H 	 -4.687556 	 3.234850 	 0.664082 
O 	 5.046494 	 -6.515445 	 -3.493423 
O 	 2.032521 	 4.705027 	 1.458628 
O 	 6.838152 	 -7.331484 	 3.071054 
O 	 2.941684 	 -6.537018 	 -5.568381 
O 	 5.907522 	 6.689064 	 6.415690 
O 	 3.998386 	 6.010699 	 4.362817 
O 	 -6.637689 	 4.178944 	 -4.996493 
O 	 6.012234 	 -0.363030 	 4.333154 
O 	 -6.720645 	 5.649074 	 -0.338762 
O 	 7.226535 	 -2.620445 	 5.188373 
O 	 0.553874 	 -5.939446 	 -4.023663 
O 	 -6.222891 	 0.478615 	 4.926656 
O 	 -0.497806 	 -2.257828 	 5.008600 
O 	 4.109329 	 0.407358 	 6.329212 
O 	 -2.973823 	 -6.232421 	 -0.080259 
O 	 3.926718 	 -6.127626 	 4.525733 
O 	 -0.043551 	 5.542597 	 3.782345 
O 	 6.613300 	 2.868497 	 0.400998 
O 	 -5.545800 	 1.895398 	 -2.090026 
O 	 -2.023929 	 1.077306 	 -0.940055 
O 	 -5.115293 	 -4.498866 	 -1.721366 
O 	 -1.074073 	 -1.624423 	 -0.781741 
O 	 4.430236 	 5.400364 	 -3.755327 
O 	 6.730004 	 -5.449814 	 -5.341396 
O 	 -0.987975 	 4.172816 	 -7.147440 
O 	 -2.223719 	 -5.820980 	 3.918983 
O 	 -4.817090 	 -3.169217 	 3.254467 
O 	 -2.335316 	 -4.176212 	 -2.651443 
O 	 4.964775 	 -2.870899 	 1.016464 
O 	 4.047671 	 2.522654 	 -1.432416 
O 	 1.144193 	 -6.908995 	 2.826669 
O 	 4.416432 	 2.943874 	 5.608438 
O 	 2.904621 	 7.072328 	 -1.320276 
O 	 5.253198 	 0.158316 	 1.452469 
O 	 5.661743 	 4.658015 	 -6.443863 
O 	 1.492578 	 5.174573 	 -4.225334 
O 	 6.487288 	 3.931781 	 -2.662693 
O 	 -1.736539 	 5.354226 	 -0.674952 
O 	 -2.209989 	 2.231297 	 4.938746 
O 	 1.764262 	 -0.734605 	 2.353052 
O 	 -2.965913 	 -3.644998 	 1.197886 
O 	 1.176823 	 1.486952 	 6.427831 
O 	 7.314307 	 -2.179808 	 -6.964498 
O 	 3.614535 	 -6.521722 	 1.686476 
O 	 -2.766264 	 0.053875 	 2.918260 
O 	 -0.793318 	 6.609271 	 -3.116595 
O 	 6.772495 	 -4.613623 	 2.097370 
O 	 -6.998180 	 -1.850355 	 2.300449 
O 	 -4.270817 	 3.227782 	 -3.936626 
O 	 7.568083 	 0.606286 	 -4.100901 
O 	 -6.449435 	 7.184370 	 -5.807936 
O 	 -0.336386 	 -2.559747 	 1.666526 
O 	 1.624365 	 2.661753 	 -2.653484 
O 	 -0.775425 	 -1.665041 	 -3.884148 
O 	 -2.227371 	 4.392411 	 2.183767 
O 	 1.662973 	 -4.799707 	 4.437520 
O 	 5.520920 	 6.106465 	 -0.184066 
O 	 -0.133082 	 -4.800290 	 -1.130594 
O 	 -0.144190 	 -7.164726 	 0.209583 
O 	 -1.128735 	 1.931372 	 1.575643 
O 	 -3.489688 	 -2.493536 	 -7.252930 
O 	 -1.054348 	 -0.198829 	 6.641384 
O 	 3.002440 	 -4.471086 	 -0.134568 
O 	 -4.695258 	 -1.825831 	 -0.445795 
O 	 -6.222628 	 -5.943733 	 0.397528 
O 	 -3.815920 	 1.857552 	 -6.862715 
O 	 -3.741680 	 -5.765140 	 -6.652935 
O 	 5.690682 	 1.715229 	 -6.707977 
O 	 5.887628 	 -5.342993 	 -1.097392 
O 	 -4.477202 	 5.434616 	 -2.168581 
O 	 -5.548059 	 -4.283788 	 -4.589481 
O 	 3.727316 	 -2.564203 	 3.382403 
O 	 -6.646665 	 2.472888 	 3.060584 
O 	 -0.411505 	 -7.487512 	 5.963758 
O 	 -6.617994 	 4.357763 	 6.747953 
O 	 -6.118053 	 6.908241 	 5.814066 
O 	 0.028812 	 2.204729 	 -5.322484 
O 	 1.069083 	 5.163361 	 -1.042539 
O 	 4.553799 	 -2.402621 	 -5.632115 
O 	 -3.200577 	 6.665037 	 7.431782 
O 	 -4.308821 	 -0.313543 	 -2.753087 
O 	 3.667066 	 2.425013 	 1.836736 
O 	 -6.556746 	 0.801186 	 -7.371598 
O 	 -5.344707 	 -5.983017 	 4.080575 
O 	 6.671951 	 4.066601 	 4.535347 
O 	 2.927058 	 1.030499 	 -5.441310 
O 	 -0.500467 	 -4.586494 	 6.335715 
O 	 1.504491 	 -0.033162 	 -2.966657 
O 	 2.717137 	 -3.495352 	 -3.190817 
O 	 2.848062 	 -0.275759 	 -0.696558 
O 	 -2.658826 	 5.371567 	 -4.917456 
O 	 1.526318 	 -1.678958 	 -5.236575 
O 	 2.030040 	 4.546308 	 5.901907 
O 	 -5.691572 	 6.831623 	 1.924088 
O 	 5.275543 	 -0.778604 	 -3.375291 
O 	 2.368152 	 5.934315 	 -6.845545 
O 	 -1.300460 	 -4.368946 	 -5.757558 
O 	 2.225575 	 -1.714089 	 6.132482 
O 	 -1.730727 	 0.138339 	 -5.685047 
O 	 -5.284786 	 -0.106878 	 1.641422 
O 	 -3.952951 	 -1.277361 	 5.150716 
O 	 -4.829295 	 4.842390 	 3.734924 
O 	 -5.973126 	 -4.846331 	 7.143790 
O 	 -3.778135 	 3.974036 	 6.338889 
O 	 -5.521021 	 -1.624810 	 -4.863068 
O 	 -1.697330 	 3.164457 	 -2.967408 
O 	 5.866421 	 -5.533534 	 6.424640 
O 	 2.171569 	 -4.470458 	 -7.372684 
O 	 1.015578 	 1.964281 	 3.206570 
O 	 -3.185457 	 -6.797764 	 -2.913555 
O 	 -4.656225 	 2.298361 	 0.433485 
K 	 5.182403 	 4.954310 	 2.066502 
