333
conformation = 35
H 	 5.007246 	 -7.506811 	 -3.398670 
H 	 4.876623 	 -6.087129 	 -2.653333 
H 	 1.451329 	 4.416307 	 2.116061 
H 	 2.608824 	 3.949956 	 1.277346 
H 	 6.791227 	 -7.477389 	 4.152743 
H 	 6.487925 	 -6.453807 	 3.040386 
H 	 2.283572 	 -6.290885 	 -4.843784 
H 	 3.832969 	 -6.519470 	 -4.978401 
H 	 5.919109 	 6.103851 	 7.153576 
H 	 5.373545 	 6.132411 	 5.670309 
H 	 3.146514 	 5.563278 	 4.697502 
H 	 3.715475 	 6.929413 	 4.440847 
H 	 -5.870690 	 3.834254 	 -4.516302 
H 	 -6.395141 	 5.204976 	 -5.083829 
H 	 5.367498 	 -0.287382 	 5.031788 
H 	 6.901002 	 0.043441 	 4.519228 
H 	 -6.068344 	 5.832285 	 -1.073647 
H 	 -6.476186 	 6.416900 	 0.269116 
H 	 6.873522 	 -1.953174 	 4.635259 
H 	 -6.756557 	 -2.837566 	 4.919674 
H 	 -0.038902 	 -6.570314 	 -3.762681 
H 	 -0.099270 	 -5.290806 	 -4.601845 
H 	 -5.401576 	 -0.049284 	 4.937893 
H 	 -6.279631 	 1.174128 	 4.209674 
H 	 -0.906280 	 -2.117483 	 4.063834 
H 	 -0.811598 	 -1.471614 	 5.579813 
H 	 3.447028 	 -0.349602 	 6.742447 
H 	 4.720370 	 0.648764 	 7.012809 
H 	 -1.991535 	 -6.597054 	 -0.006658 
H 	 -2.956997 	 -5.421836 	 0.453707 
H 	 3.118552 	 -5.589447 	 4.588364 
H 	 4.686177 	 -5.716373 	 4.921376 
H 	 0.225622 	 6.497151 	 3.388931 
H 	 -0.889135 	 5.249472 	 3.237333 
H 	 7.302195 	 3.044183 	 0.988144 
H 	 6.368655 	 1.859154 	 0.440490 
H 	 -5.069633 	 2.402556 	 -3.074623 
H 	 -6.479938 	 1.602863 	 -2.502940 
H 	 -3.054802 	 1.348345 	 -0.708516 
H 	 -1.957868 	 1.699567 	 -1.814181 
H 	 -5.413200 	 -4.469608 	 -2.752282 
H 	 -5.176102 	 -3.547370 	 -1.480885 
H 	 -1.695171 	 -0.836913 	 -1.045738 
H 	 -1.695763 	 -2.413587 	 -1.184376 
H 	 4.769227 	 4.727928 	 -3.142234 
H 	 3.360567 	 5.350234 	 -3.839997 
H 	 6.145795 	 -5.632766 	 -6.244188 
H 	 6.136994 	 -5.793261 	 -4.689725 
H 	 -1.566320 	 4.124230 	 6.964268 
H 	 -1.792700 	 4.595131 	 -6.462854 
H 	 -2.284155 	 -6.654520 	 4.262824 
H 	 -3.074579 	 -5.715764 	 3.455473 
H 	 -4.222107 	 -3.195052 	 2.529637 
H 	 -4.950572 	 -4.117644 	 3.369425 
H 	 -1.862449 	 -4.447374 	 -1.874548 
H 	 -3.227679 	 -4.072044 	 -2.385031 
H 	 4.222478 	 -2.904307 	 0.380737 
H 	 4.510173 	 -2.854754 	 1.911974 
H 	 4.808450 	 2.392294 	 -1.914775 
H 	 4.175315 	 3.166742 	 -0.668090 
H 	 1.027246 	 -6.107588 	 3.460359 
H 	 1.919920 	 -6.844402 	 2.358029 
H 	 4.161238 	 1.989633 	 5.693501 
H 	 3.674872 	 3.456882 	 5.774475 
H 	 2.975095 	 7.142017 	 -0.389653 
H 	 2.406977 	 6.335460 	 -1.498105 
H 	 4.794083 	 -0.580492 	 1.016461 
H 	 5.503890 	 -0.155299 	 2.351302 
H 	 6.361699 	 4.342013 	 -6.075032 
H 	 5.008096 	 4.785041 	 -5.685122 
H 	 1.310018 	 4.248460 	 -3.857228 
H 	 0.621347 	 5.617024 	 -4.094810 
H 	 7.008676 	 3.639379 	 -1.973531 
H 	 7.110905 	 4.247379 	 -3.326015 
H 	 -2.722884 	 5.470766 	 -0.975568 
H 	 -1.531955 	 4.448553 	 -1.085074 
H 	 -2.180336 	 1.578325 	 5.584175 
H 	 -2.437258 	 1.638773 	 4.138015 
H 	 1.620318 	 0.252544 	 2.687532 
H 	 0.857934 	 -0.953086 	 2.206970 
H 	 -3.395884 	 -2.777355 	 0.539599 
H 	 -2.197486 	 -3.506091 	 1.375907 
H 	 1.308677 	 2.559098 	 6.416610 
H 	 1.915507 	 1.116666 	 6.666573 
H 	 7.350022 	 -2.149371 	 6.912102 
H 	 -7.240127 	 -2.873772 	 -6.565633 
H 	 4.029235 	 -6.249939 	 2.391039 
H 	 3.453368 	 -5.803440 	 0.992698 
H 	 -2.871479 	 -0.307649 	 3.823506 
H 	 -3.607422 	 -0.000140 	 2.542427 
H 	 -0.659578 	 6.338785 	 -2.147545 
H 	 -1.675078 	 7.125150 	 -2.958807 
H 	 6.051711 	 -4.066289 	 1.560919 
H 	 7.373114 	 -4.908647 	 1.328433 
H 	 -6.343743 	 -2.541117 	 2.285209 
H 	 7.025897 	 -2.333523 	 1.914461 
H 	 -2.666475 	 3.084634 	 -3.431229 
H 	 -4.211153 	 2.839027 	 -4.896889 
H 	 6.728544 	 0.034172 	 -4.076771 
H 	 7.268390 	 1.228005 	 -4.874788 
H 	 -5.704111 	 -7.167641 	 -5.895215 
H 	 -7.230026 	 -7.192292 	 -5.891147 
H 	 0.017764 	 -3.445450 	 1.530583 
H 	 -0.545513 	 -2.206385 	 0.756379 
H 	 1.203951 	 1.843925 	 -2.920984 
H 	 2.416784 	 2.453580 	 -2.012549 
H 	 -0.198040 	 -1.244318 	 -3.387140 
H 	 -1.279523 	 -2.253282 	 -3.323150 
H 	 -1.982985 	 3.535557 	 1.821915 
H 	 -2.082693 	 4.956934 	 1.310318 
H 	 1.942970 	 -3.854251 	 4.379851 
H 	 0.790100 	 -4.705541 	 4.971278 
H 	 5.108268 	 6.631479 	 -0.888122 
H 	 6.430588 	 5.820288 	 -0.660356 
H 	 -0.053607 	 -5.759290 	 -0.974866 
H 	 0.406238 	 -4.697005 	 -1.987671 
H 	 -0.528773 	 6.849763 	 0.012500 
H 	 0.118501 	 -7.138653 	 1.094367 
H 	 -1.446525 	 1.611957 	 0.574656 
H 	 -1.675356 	 1.258892 	 2.065569 
H 	 -3.829307 	 -2.106718 	 -6.551396 
H 	 -3.945623 	 -3.447831 	 -7.394830 
H 	 -0.330943 	 0.443675 	 6.547489 
H 	 -1.421114 	 -0.263605 	 -7.367684 
H 	 3.088117 	 -4.511101 	 -1.205990 
H 	 2.076379 	 -4.513635 	 -0.078765 
H 	 -5.248443 	 -1.352731 	 0.117687 
H 	 -4.760157 	 -1.361994 	 -1.345188 
H 	 -5.712612 	 -5.873657 	 -0.570969 
H 	 -5.748237 	 -6.367343 	 0.901289 
H 	 -4.765289 	 1.462635 	 -6.940072 
H 	 -3.246201 	 1.176181 	 -6.867033 
H 	 -3.030832 	 -5.349701 	 -6.189209 
H 	 -3.473644 	 -6.608685 	 -6.973346 
H 	 6.661876 	 1.474012 	 -6.904824 
H 	 5.587669 	 2.541676 	 -6.977780 
H 	 5.509298 	 -4.787418 	 -0.481417 
H 	 6.519527 	 -5.880229 	 -0.804637 
H 	 -4.670227 	 4.673944 	 -2.769880 
H 	 -4.448499 	 6.234783 	 -2.678782 
H 	 -6.457213 	 -4.695581 	 -4.891353 
H 	 -5.736836 	 -3.277075 	 -4.886357 
H 	 3.101387 	 -1.797498 	 3.289957 
H 	 4.509805 	 -2.240603 	 3.804329 
H 	 -5.968224 	 2.991056 	 3.041963 
H 	 7.439313 	 3.072782 	 3.511037 
H 	 -0.345672 	 6.515214 	 5.456459 
H 	 -0.715661 	 7.102348 	 6.741522 
H 	 -5.679523 	 4.272829 	 6.665113 
H 	 -6.843084 	 4.466377 	 -7.300236 
H 	 -5.667762 	 6.675397 	 6.566553 
H 	 -7.016891 	 6.511883 	 6.011119 
H 	 0.963423 	 2.012730 	 -5.456537 
H 	 -0.282277 	 2.748100 	 -6.064214 
H 	 0.739252 	 4.352109 	 -1.595506 
H 	 1.407226 	 4.761014 	 -0.198320 
H 	 5.304559 	 -2.443485 	 -6.366221 
H 	 4.661894 	 -3.079733 	 -5.029519 
H 	 -3.253944 	 6.262887 	 -6.601822 
H 	 -3.264400 	 5.841624 	 6.819118 
H 	 -4.921802 	 0.535110 	 -2.612558 
H 	 -3.542134 	 -0.090713 	 -2.574113 
H 	 4.107132 	 1.724487 	 1.653825 
H 	 3.053108 	 2.306174 	 2.709954 
H 	 -6.431318 	 0.729773 	 6.484488 
H 	 -6.827887 	 -0.084885 	 -7.129998 
H 	 -5.381785 	 -6.643843 	 3.385561 
H 	 -5.665151 	 -6.494396 	 4.797442 
H 	 5.740273 	 3.814398 	 4.929994 
H 	 7.132798 	 4.194584 	 5.321150 
H 	 3.750047 	 1.276616 	 -5.637752 
H 	 2.818572 	 0.046198 	 -5.721851 
H 	 -0.800628 	 -3.744904 	 5.823784 
H 	 -1.105058 	 -5.381923 	 5.761584 
H 	 1.886951 	 -0.276077 	 -2.277100 
H 	 2.198458 	 0.163472 	 -3.649133 
H 	 2.292546 	 -3.019419 	 -3.858427 
H 	 2.564793 	 -4.498193 	 -3.458433 
H 	 3.270666 	 0.640865 	 -0.768004 
H 	 2.254503 	 -0.145079 	 0.040846 
H 	 -1.933143 	 5.755846 	 -4.481774 
H 	 -3.079223 	 4.694217 	 -4.351056 
H 	 0.564230 	 -1.954042 	 -5.183842 
H 	 1.751138 	 -2.335565 	 -6.079912 
H 	 1.268228 	 4.898019 	 5.197100 
H 	 1.992938 	 5.112652 	 6.603819 
H 	 -5.515454 	 6.206800 	 2.524047 
H 	 -6.617009 	 7.264173 	 2.334518 
H 	 5.020727 	 -1.532138 	 -2.890529 
H 	 4.891331 	 -1.077931 	 -4.324968 
H 	 1.969249 	 5.569612 	 -6.068572 
H 	 2.389627 	 6.842165 	 -6.612542 
H 	 -0.843583 	 -4.277680 	 -6.627028 
H 	 -1.523545 	 -3.538469 	 -5.335648 
H 	 2.249165 	 -2.542273 	 6.614966 
H 	 1.263261 	 -1.743402 	 5.663047 
H 	 -1.145607 	 0.956795 	 -5.560634 
H 	 -1.510970 	 -0.438537 	 -5.011101 
H 	 -6.172018 	 -0.518850 	 1.691183 
H 	 -5.405098 	 0.863799 	 1.229696 
H 	 -4.331727 	 -1.979100 	 4.440338 
H 	 -3.887301 	 -1.723949 	 5.988241 
H 	 -4.750171 	 5.016243 	 4.615801 
H 	 -3.923245 	 4.781276 	 3.287306 
H 	 -5.217314 	 -5.166992 	 -7.387363 
H 	 -5.615531 	 -4.859395 	 6.079262 
H 	 -3.774578 	 3.328616 	 6.922581 
H 	 -3.520115 	 3.520532 	 5.456364 
H 	 -6.430138 	 -0.964020 	 -4.949839 
H 	 -5.179437 	 -1.142727 	 -4.058944 
H 	 -1.131724 	 3.417647 	 -3.581713 
H 	 -5.161183 	 2.434874 	 -0.522404 
H 	 6.580390 	 -4.989464 	 6.267619 
H 	 6.102259 	 -6.474880 	 6.416646 
H 	 2.477604 	 -5.135234 	 -6.915208 
H 	 1.311644 	 -4.787705 	 7.010018 
H 	 0.556319 	 1.930342 	 4.057347 
H 	 0.199242 	 1.919881 	 2.480346 
H 	 -3.374381 	 -6.249944 	 -2.065268 
H 	 -3.423276 	 -6.092364 	 -3.563024 
H 	 -4.386984 	 3.125277 	 0.694600 
O 	 5.009521 	 -6.525032 	 -3.512482 
O 	 1.935231 	 4.673614 	 1.329453 
O 	 6.771442 	 -7.369307 	 3.168091 
O 	 2.985426 	 -6.525188 	 -5.513015 
O 	 5.899286 	 6.660012 	 6.343104 
O 	 3.981144 	 5.991707 	 4.319774 
O 	 -6.610337 	 4.243306 	 -5.085068 
O 	 5.989934 	 -0.303957 	 4.283612 
O 	 -6.725713 	 5.655721 	 -0.363823 
O 	 7.213979 	 -2.671639 	 5.193034 
O 	 0.551079 	 -5.850948 	 -4.091090 
O 	 -6.252114 	 0.484573 	 4.920707 
O 	 -0.598572 	 -2.286055 	 5.000203 
O 	 4.050793 	 0.294017 	 6.362051 
O 	 -2.935518 	 -6.301057 	 -0.000685 
O 	 3.922959 	 -6.200487 	 4.501779 
O 	 -0.103366 	 5.587701 	 3.696851 
O 	 6.531698 	 2.832940 	 0.400612 
O 	 -5.546866 	 1.909404 	 -2.203671 
O 	 -2.154777 	 1.076061 	 -1.010065 
O 	 -5.099929 	 -4.448061 	 -1.827792 
O 	 -1.097253 	 -1.619131 	 -0.937139 
O 	 4.340158 	 5.386162 	 -3.813676 
O 	 6.681614 	 -5.390452 	 -5.442459 
O 	 -1.084514 	 4.192175 	 -7.083025 
O 	 -2.202262 	 -5.782902 	 3.897725 
O 	 -4.881001 	 -3.169983 	 3.240609 
O 	 -2.307222 	 -4.204277 	 -2.696520 
O 	 4.981072 	 -2.815384 	 0.990203 
O 	 4.013485 	 2.497490 	 -1.366795 
O 	 1.050334 	 -6.904329 	 2.819281 
O 	 4.419710 	 2.934273 	 5.549477 
O 	 2.981347 	 7.124882 	 -1.363945 
O 	 5.280231 	 0.144988 	 1.464962 
O 	 5.521600 	 4.617824 	 -6.483595 
O 	 1.452846 	 5.164154 	 -4.275783 
O 	 6.443806 	 3.924590 	 -2.700445 
O 	 -1.815284 	 5.279919 	 -0.612567 
O 	 -2.188896 	 2.231036 	 4.876512 
O 	 1.781031 	 -0.649404 	 2.328150 
O 	 -3.107487 	 -3.587169 	 1.084843 
O 	 1.100908 	 1.564351 	 6.382594 
O 	 7.298108 	 -2.074593 	 -7.012535 
O 	 3.552699 	 -6.591383 	 1.582107 
O 	 -2.664063 	 0.008165 	 2.927927 
O 	 -0.829502 	 6.586600 	 -3.097648 
O 	 6.746566 	 -4.612676 	 1.964153 
O 	 -7.050640 	 -1.896283 	 2.244957 
O 	 -4.274492 	 3.219307 	 -3.987853 
O 	 7.485364 	 0.596518 	 -4.159291 
O 	 -6.464615 	 7.128989 	 -5.797804 
O 	 -0.377436 	 -2.555391 	 1.666811 
O 	 1.723542 	 2.664355 	 -2.667784 
O 	 -0.843378 	 -1.664049 	 -3.938633 
O 	 -2.305337 	 4.428031 	 2.072728 
O 	 1.566340 	 -4.781737 	 4.439337 
O 	 5.551564 	 6.022948 	 -0.236087 
O 	 -0.118022 	 -4.813986 	 -1.190144 
O 	 -0.142861 	 -7.166610 	 0.171648 
O 	 -1.216998 	 1.900792 	 1.516914 
O 	 -3.572247 	 -2.549300 	 -7.364206 
O 	 -1.074223 	 -0.254399 	 6.620168 
O 	 3.024585 	 -4.408230 	 -0.216716 
O 	 -4.729738 	 -1.897139 	 -0.498958 
O 	 -6.265831 	 -5.875595 	 0.242305 
O 	 -3.878984 	 1.893642 	 -6.926220 
O 	 -3.800822 	 -5.713622 	 -6.685674 
O 	 5.676404 	 1.577681 	 -6.830500 
O 	 5.813722 	 -5.327156 	 -1.198629 
O 	 -4.611788 	 5.435428 	 -2.182624 
O 	 -5.620412 	 -4.242910 	 -4.606690 
O 	 3.753915 	 -2.569219 	 3.349612 
O 	 -6.784018 	 2.491304 	 3.000135 
O 	 -0.363543 	 7.364477 	 5.902846 
O 	 -6.640889 	 4.334686 	 6.662478 
O 	 -6.151073 	 6.943541 	 5.758225 
O 	 -0.020177 	 2.231816 	 -5.287566 
O 	 1.067114 	 5.127779 	 -1.075370 
O 	 4.604250 	 -2.424588 	 -5.692772 
O 	 -3.183823 	 6.645164 	 7.387825 
O 	 -4.450708 	 -0.328383 	 -2.822290 
O 	 3.587379 	 2.510510 	 1.921197 
O 	 -6.502072 	 0.830130 	 -7.372670 
O 	 -5.407460 	 -5.938022 	 4.016669 
O 	 6.611248 	 4.033466 	 4.503566 
O 	 2.832561 	 0.994811 	 -5.511561 
O 	 -0.592282 	 -4.677075 	 6.192016 
O 	 1.403528 	 -0.032467 	 -3.117121 
O 	 2.754302 	 -3.582141 	 -3.209134 
O 	 2.874395 	 -0.259076 	 -0.746304 
O 	 -2.716535 	 5.416740 	 -4.906353 
O 	 1.508582 	 -1.793446 	 -5.287877 
O 	 1.942202 	 4.548474 	 5.815617 
O 	 -5.853064 	 6.874948 	 1.920256 
O 	 5.268669 	 -0.751261 	 -3.447011 
O 	 2.389629 	 5.886850 	 -6.896150 
O 	 -1.255778 	 -4.367410 	 -5.730030 
O 	 2.155756 	 -1.731442 	 6.035011 
O 	 -1.776714 	 0.209856 	 -5.717122 
O 	 -5.306720 	 -0.086370 	 1.615792 
O 	 -4.060766 	 -1.274987 	 5.107274 
O 	 -4.854445 	 4.828994 	 3.656837 
O 	 -6.005562 	 -4.839702 	 6.996798 
O 	 -3.793615 	 4.044526 	 6.242663 
O 	 -5.627731 	 -1.573961 	 -4.837782 
O 	 -1.778618 	 3.128135 	 -2.909696 
O 	 5.789177 	 -5.530243 	 6.376759 
O 	 2.133021 	 -4.417981 	 7.396602 
O 	 0.991381 	 1.959866 	 3.154579 
O 	 -3.249204 	 -6.801356 	 -2.931354 
O 	 -4.622886 	 2.259355 	 0.311021 
K 	 5.166159 	 4.969222 	 2.004858 
