333
conformation = 37
H 	 -2.643137 	 6.715271 	 -4.484635 
H 	 -2.774000 	 -6.722905 	 -3.739746 
H 	 -6.204383 	 3.739939 	 1.055036 
H 	 -5.065010 	 3.281790 	 0.222176 
H 	 -0.840550 	 6.754152 	 3.069964 
H 	 -1.172939 	 -7.133979 	 1.964719 
H 	 -5.361769 	 -6.969261 	 -5.895324 
H 	 -3.819277 	 -7.171042 	 -6.057195 
H 	 -1.726756 	 5.436396 	 6.075595 
H 	 -2.279956 	 5.473736 	 4.595733 
H 	 -4.502109 	 4.880032 	 3.635072 
H 	 -3.923979 	 6.259240 	 3.373885 
H 	 1.379264 	 3.143636 	 -5.589566 
H 	 0.860864 	 4.534970 	 -6.161320 
H 	 -2.272610 	 -0.966196 	 3.957615 
H 	 -0.778104 	 -0.604246 	 3.452611 
H 	 1.188825 	 5.171718 	 -2.157285 
H 	 0.759645 	 5.745585 	 -0.833948 
H 	 -0.770503 	 -2.634703 	 3.547737 
H 	 0.495171 	 -3.504987 	 3.837884 
H 	 -7.671670 	 -7.227620 	 -4.826055 
H 	 7.156262 	 -5.951131 	 -5.665075 
H 	 1.849753 	 -0.717383 	 3.862426 
H 	 0.983172 	 0.479651 	 3.133355 
H 	 6.342960 	 -2.785025 	 3.003415 
H 	 6.438872 	 -2.138374 	 4.519054 
H 	 -4.197295 	 -1.021859 	 5.671807 
H 	 -2.952476 	 -0.029258 	 5.954404 
H 	 5.248350 	 7.628800 	 -1.076865 
H 	 4.289851 	 -6.097779 	 -0.592517 
H 	 -4.517626 	 -6.268631 	 3.487146 
H 	 -2.970583 	 -6.399063 	 3.861114 
H 	 -7.436227 	 5.826238 	 2.327908 
H 	 6.386696 	 4.564336 	 2.178458 
H 	 -0.349576 	 2.360516 	 -0.072996 
H 	 -1.305744 	 1.187933 	 -0.627656 
H 	 2.181304 	 1.715733 	 -4.152864 
H 	 0.784495 	 0.917186 	 -3.574071 
H 	 4.186582 	 0.666192 	 -1.791726 
H 	 5.279413 	 1.042759 	 -2.898106 
H 	 1.847252 	 -5.135441 	 -3.827366 
H 	 2.108230 	 -4.208778 	 -2.557734 
H 	 5.532499 	 -1.506041 	 -2.121553 
H 	 5.563348 	 -3.096487 	 -2.257247 
H 	 -2.894951 	 4.086719 	 -4.217585 
H 	 -4.301543 	 4.681941 	 -4.917418 
H 	 -1.498920 	 -6.330722 	 -7.325121 
H 	 -1.498891 	 -6.458688 	 -5.775467 
H 	 5.708614 	 3.476793 	 5.891325 
H 	 5.459357 	 3.923715 	 -7.521854 
H 	 4.971430 	 7.576184 	 3.176188 
H 	 4.186426 	 -6.395801 	 2.383428 
H 	 3.017199 	 -3.847714 	 1.444060 
H 	 2.286143 	 -4.805565 	 2.306216 
H 	 5.375276 	 -5.127257 	 -2.938450 
H 	 4.030776 	 -4.729597 	 -3.472367 
H 	 -3.410793 	 -3.572951 	 -0.694900 
H 	 -3.156480 	 -3.509011 	 0.835634 
H 	 -2.854829 	 1.740151 	 -2.982209 
H 	 -3.468219 	 2.503901 	 -1.738474 
H 	 -6.635120 	 -6.782732 	 2.388068 
H 	 -5.750107 	 7.361789 	 1.277402 
H 	 -3.481297 	 1.311463 	 4.591519 
H 	 -4.003392 	 2.789630 	 4.693439 
H 	 -4.688868 	 6.487103 	 -1.467286 
H 	 -5.231325 	 5.664176 	 -2.575195 
H 	 -2.841639 	 -1.259952 	 -0.035363 
H 	 -2.155771 	 -0.823940 	 1.263361 
H 	 -1.306779 	 3.675234 	 -7.154943 
H 	 -2.683322 	 4.102778 	 -6.752781 
H 	 -6.348840 	 3.605061 	 -4.967342 
H 	 -7.022344 	 4.937178 	 -5.183791 
H 	 -0.634666 	 2.970153 	 -3.020057 
H 	 -0.525179 	 3.590103 	 -4.391640 
H 	 4.528245 	 4.797384 	 -2.056366 
H 	 5.735885 	 3.783917 	 -2.138897 
H 	 5.028002 	 0.949614 	 4.527515 
H 	 4.799830 	 0.954527 	 3.051859 
H 	 -6.003874 	 -0.385241 	 1.583246 
H 	 -6.807203 	 -1.600175 	 1.139795 
H 	 3.845900 	 -3.445046 	 -0.527498 
H 	 5.045057 	 -4.180127 	 0.283770 
H 	 -6.350495 	 1.887942 	 5.354131 
H 	 -5.768068 	 0.459904 	 5.593104 
H 	 -0.295059 	 -2.786606 	 5.856704 
H 	 -0.000005 	 -3.538028 	 7.229424 
H 	 -3.623131 	 -6.898987 	 1.300182 
H 	 -4.204898 	 -6.484075 	 -0.090787 
H 	 4.403276 	 -0.987877 	 2.774524 
H 	 3.653014 	 -0.667767 	 1.480288 
H 	 6.570363 	 5.710924 	 -3.231546 
H 	 5.573019 	 6.451358 	 -4.030760 
H 	 -1.610124 	 -4.734795 	 0.519456 
H 	 -0.302475 	 -5.569462 	 0.213513 
H 	 0.925367 	 -3.202742 	 1.215851 
H 	 -0.630013 	 -3.009218 	 0.844836 
H 	 4.596419 	 2.417972 	 -4.504771 
H 	 3.043731 	 2.164876 	 -5.965363 
H 	 -0.915495 	 -0.673285 	 -5.164741 
H 	 -0.410209 	 0.540503 	 -5.939109 
H 	 1.541648 	 7.065887 	 -6.968494 
H 	 0.013529 	 7.031023 	 -6.945342 
H 	 -7.640047 	 -4.139846 	 0.407874 
H 	 6.682922 	 -2.895730 	 -0.314452 
H 	 -6.445189 	 1.215348 	 -3.985355 
H 	 -5.219633 	 1.773700 	 -3.067401 
H 	 7.043129 	 -1.917276 	 -4.450952 
H 	 5.952913 	 -2.919440 	 -4.378609 
H 	 5.246239 	 2.856333 	 0.729215 
H 	 5.182277 	 4.303634 	 0.199815 
H 	 -5.698360 	 -4.547896 	 3.333845 
H 	 -6.872031 	 -5.368061 	 3.906067 
H 	 -2.512614 	 5.939978 	 -1.947862 
H 	 -1.217636 	 5.146171 	 -1.737181 
H 	 7.179938 	 -6.437470 	 -2.069672 
H 	 -7.241035 	 -5.350585 	 -3.064550 
H 	 6.698897 	 6.198582 	 -1.048626 
H 	 -7.531710 	 7.085457 	 0.023065 
H 	 5.813536 	 0.958559 	 -0.493966 
H 	 5.558763 	 0.567580 	 0.989325 
H 	 3.410351 	 -2.802944 	 7.271604 
H 	 3.317362 	 -4.124181 	 6.457563 
H 	 6.910798 	 -0.231284 	 5.464719 
H 	 5.815752 	 -0.941989 	 6.448395 
H 	 -4.567605 	 -5.212171 	 -2.275889 
H 	 -5.575753 	 -5.195268 	 -1.184823 
H 	 2.021613 	 -2.030202 	 -0.969579 
H 	 2.516049 	 -2.039365 	 -2.410355 
H 	 1.526646 	 -6.522049 	 -1.645785 
H 	 1.513308 	 -7.036924 	 -0.162452 
H 	 2.469596 	 0.782557 	 6.870874 
H 	 4.021503 	 0.523245 	 6.947621 
H 	 4.231126 	 -6.034602 	 -7.274960 
H 	 3.779525 	 7.646518 	 6.841273 
H 	 -0.994648 	 0.817373 	 6.921045 
H 	 -2.053357 	 1.869868 	 6.837370 
H 	 -2.147813 	 -5.450825 	 -1.543394 
H 	 -1.144023 	 -6.566423 	 -1.879226 
H 	 2.541103 	 4.004108 	 -3.854126 
H 	 2.803146 	 5.564511 	 -3.755088 
H 	 0.781850 	 -5.366164 	 -5.973113 
H 	 1.495727 	 -3.968609 	 -5.968473 
H 	 -4.568678 	 -2.480026 	 2.213031 
H 	 -3.116321 	 -2.916554 	 2.734926 
H 	 1.264989 	 2.340706 	 1.959378 
H 	 -0.217294 	 2.390482 	 2.422217 
H 	 6.910275 	 5.830030 	 4.381051 
H 	 6.549756 	 6.426243 	 5.671363 
H 	 1.564639 	 3.599448 	 5.597268 
H 	 0.390138 	 3.795886 	 6.535225 
H 	 1.596106 	 6.002626 	 5.479063 
H 	 0.229973 	 5.819630 	 4.906756 
H 	 -6.700820 	 1.338452 	 -6.522366 
H 	 6.974821 	 2.097288 	 -7.137334 
H 	 -6.918719 	 3.659222 	 -2.659327 
H 	 -6.230726 	 4.082274 	 -1.260337 
H 	 -2.364490 	 -3.106457 	 -7.445865 
H 	 -2.967986 	 -3.766137 	 -6.089657 
H 	 3.990916 	 5.616848 	 7.256712 
H 	 4.005434 	 5.147473 	 5.748674 
H 	 2.321311 	 -0.129275 	 -3.692499 
H 	 3.709487 	 -0.770294 	 -3.656766 
H 	 -3.549342 	 1.048256 	 0.591487 
H 	 -4.573865 	 1.637470 	 1.643325 
H 	 0.803857 	 0.058749 	 5.429106 
H 	 0.417001 	 -0.748354 	 6.724063 
H 	 1.854390 	 7.567420 	 2.331735 
H 	 1.626847 	 -7.140553 	 3.745553 
H 	 -1.919845 	 3.117315 	 3.833094 
H 	 -0.553072 	 3.489140 	 4.240025 
H 	 -3.874134 	 0.620115 	 -6.682146 
H 	 -4.838133 	 -0.631548 	 -6.793403 
H 	 6.435850 	 -4.439556 	 4.739305 
H 	 6.147617 	 -6.043483 	 4.681405 
H 	 -5.789329 	 -0.935013 	 -3.346684 
H 	 -5.483446 	 -0.504015 	 -4.763725 
H 	 -5.379076 	 -3.713877 	 -4.943907 
H 	 -5.098306 	 -5.189349 	 -4.510879 
H 	 -4.357286 	 -0.040506 	 -1.857581 
H 	 -5.373052 	 -0.821585 	 -1.039982 
H 	 5.320165 	 5.075088 	 -5.565785 
H 	 4.156102 	 4.049017 	 -5.413381 
H 	 -7.072713 	 -2.661798 	 -6.270745 
H 	 -5.895943 	 -2.992478 	 -7.180968 
H 	 -6.391964 	 4.222628 	 4.119663 
H 	 -5.660589 	 4.449229 	 5.544300 
H 	 1.734062 	 5.518404 	 1.445303 
H 	 0.625557 	 6.559998 	 1.277234 
H 	 -2.618761 	 -2.214536 	 -3.964151 
H 	 -2.779734 	 -1.751074 	 -5.415573 
H 	 -5.683868 	 4.895021 	 -7.122178 
H 	 -5.254123 	 6.167302 	 7.175697 
H 	 6.439119 	 -4.932977 	 7.204260 
H 	 5.708976 	 -4.203135 	 -6.384062 
H 	 -5.398248 	 -3.205576 	 5.532592 
H 	 -6.391634 	 -2.420184 	 4.593249 
H 	 6.113704 	 0.290658 	 -6.619767 
H 	 5.731249 	 -1.095984 	 -6.085267 
H 	 1.060339 	 -1.176539 	 0.610914 
H 	 1.840424 	 0.183785 	 0.166054 
H 	 2.915743 	 -2.653902 	 3.361378 
H 	 3.369869 	 -2.395036 	 4.892864 
H 	 2.476630 	 4.323573 	 3.541035 
H 	 3.338244 	 4.111655 	 2.186930 
H 	 2.001357 	 -5.819634 	 6.427245 
H 	 1.630375 	 -5.543432 	 5.011231 
H 	 3.500131 	 2.650797 	 5.853800 
H 	 3.729406 	 2.855904 	 4.382877 
H 	 0.818792 	 -1.623287 	 -6.044761 
H 	 2.074274 	 -1.783512 	 -5.129132 
H 	 6.115422 	 2.739039 	 -4.638881 
H 	 2.082578 	 1.785460 	 -1.593615 
H 	 -1.065450 	 -5.674664 	 5.186953 
H 	 -1.555417 	 -7.136698 	 5.346724 
H 	 -5.171874 	 -5.784779 	 6.909401 
H 	 -6.312770 	 -5.486299 	 5.953387 
H 	 -7.079113 	 1.251568 	 2.999890 
H 	 -7.454915 	 1.247326 	 1.448214 
H 	 3.888114 	 -6.936864 	 -3.138290 
H 	 3.822545 	 -6.787754 	 -4.655697 
H 	 2.873563 	 2.437860 	 -0.394609 
O 	 -2.642041 	 -7.199220 	 -4.583443 
O 	 -5.717796 	 4.000449 	 0.248836 
O 	 -0.883289 	 6.858346 	 2.106457 
O 	 -4.659827 	 -7.194122 	 -6.580205 
O 	 -1.747985 	 5.984610 	 5.267272 
O 	 -3.669129 	 5.320129 	 3.245897 
O 	 0.642854 	 3.580080 	 -6.161282 
O 	 -1.660088 	 -0.971349 	 3.208129 
O 	 0.525080 	 4.986525 	 -1.435765 
O 	 -0.434857 	 -3.348055 	 4.125419 
O 	 -7.098592 	 -6.514133 	 -5.166864 
O 	 0.995919 	 -0.184755 	 3.849939 
O 	 6.645953 	 -2.957461 	 3.927779 
O 	 -3.600409 	 -0.384521 	 5.293431 
O 	 4.319305 	 -6.976964 	 -1.066467 
O 	 -3.725817 	 -6.874555 	 3.427897 
O 	 7.143469 	 4.921122 	 2.618725 
O 	 -1.121701 	 2.159547 	 -0.671051 
O 	 1.702153 	 1.241805 	 -3.284539 
O 	 5.085895 	 0.405348 	 -2.085609 
O 	 2.152684 	 -5.114505 	 -2.908447 
O 	 6.152736 	 -2.290135 	 -2.018851 
O 	 -3.312428 	 4.714103 	 -4.888964 
O 	 -0.971497 	 -6.057625 	 -6.520527 
O 	 6.157835 	 3.523025 	 6.749652 
O 	 5.050717 	 -6.450582 	 2.824785 
O 	 2.367600 	 -3.842330 	 2.168125 
O 	 4.945120 	 -4.872237 	 -3.770175 
O 	 -2.666491 	 -3.481055 	 -0.083361 
O 	 -3.636139 	 1.823645 	 -2.431748 
O 	 -6.604014 	 7.325601 	 1.746541 
O 	 -3.228528 	 2.263821 	 4.474605 
O 	 -4.659936 	 6.459186 	 -2.437002 
O 	 -2.366302 	 -0.523833 	 0.394695 
O 	 -2.134075 	 3.943763 	 -7.555235 
O 	 -6.199344 	 4.489764 	 -5.348357 
O 	 -1.208750 	 3.252763 	 -3.774822 
O 	 5.427635 	 4.602737 	 -1.679772 
O 	 5.065171 	 1.556801 	 3.802414 
O 	 -5.865982 	 -1.313065 	 1.255688 
O 	 4.133737 	 -4.252794 	 0.006754 
O 	 -6.551061 	 0.900640 	 5.308547 
O 	 -0.352222 	 -2.737794 	 6.812637 
O 	 -4.100464 	 7.631702 	 0.504473 
O 	 4.591889 	 -0.665098 	 1.857615 
O 	 6.419048 	 5.915357 	 -4.165798 
O 	 -0.903171 	 -5.283888 	 0.885025 
O 	 0.194392 	 -2.570175 	 1.169276 
O 	 2.976493 	 2.548709 	 -5.061964 
O 	 -0.167189 	 -0.073445 	 -5.234367 
O 	 0.786559 	 6.453648 	 -6.868792 
O 	 6.869653 	 -3.223477 	 0.598549 
O 	 -5.922666 	 1.994842 	 -3.741315 
O 	 6.402312 	 -2.334124 	 -5.013689 
O 	 4.939187 	 3.760503 	 0.997587 
O 	 -6.088804 	 -5.447561 	 3.367379 
O 	 -2.096412 	 5.347895 	 -1.313135 
O 	 7.136708 	 -5.484955 	 -2.264440 
O 	 7.106898 	 7.060994 	 -0.901133 
O 	 6.027772 	 1.227717 	 0.440884 
O 	 3.674113 	 -3.223038 	 6.455968 
O 	 6.176550 	 -0.925700 	 5.547917 
O 	 -4.622585 	 -5.073495 	 -1.293901 
O 	 2.517516 	 -2.572979 	 -1.574255 
O 	 0.982128 	 -6.541186 	 -0.840598 
O 	 3.366628 	 1.225125 	 6.899608 
O 	 3.446222 	 -6.381202 	 7.141781 
O 	 -1.972073 	 0.895861 	 6.991352 
O 	 -1.839056 	 -5.996786 	 -2.276965 
O 	 2.630870 	 4.765719 	 -3.253024 
O 	 1.626920 	 -4.910842 	 -5.677368 
O 	 -3.892946 	 -3.238964 	 2.277612 
O 	 0.458041 	 1.822308 	 1.925659 
O 	 6.890447 	 6.691477 	 4.828530 
O 	 0.609477 	 3.662090 	 5.586411 
O 	 1.097470 	 6.274722 	 4.685401 
O 	 -7.671317 	 1.563456 	 -6.356209 
O 	 -6.583267 	 4.455479 	 -2.151335 
O 	 -3.039774 	 -3.094590 	 -6.769955 
O 	 4.068380 	 5.971747 	 6.314426 
O 	 2.791758 	 -1.000885 	 -3.896196 
O 	 -4.067147 	 1.847890 	 0.856266 
O 	 0.752249 	 0.160434 	 6.456055 
O 	 1.839946 	 -6.605726 	 2.941490 
O 	 -1.040345 	 3.363732 	 3.431949 
O 	 -4.823286 	 0.320765 	 -6.587645 
O 	 6.652964 	 -5.352994 	 5.112331 
O 	 -6.249087 	 -0.703657 	 -4.196563 
O 	 -4.889748 	 -4.258921 	 -4.280227 
O 	 -4.773299 	 -0.926430 	 -1.817496 
O 	 4.531199 	 4.749305 	 -5.978225 
O 	 -6.138324 	 -2.473180 	 -6.363914 
O 	 -5.713256 	 3.876544 	 4.736939 
O 	 1.386817 	 6.210532 	 0.850690 
O 	 -2.381933 	 -1.419237 	 -4.522860 
O 	 -5.257843 	 5.215008 	 6.931544 
O 	 5.998924 	 -5.039848 	 -6.799121 
O 	 -5.497074 	 -2.404114 	 4.958810 
O 	 5.470299 	 -0.455985 	 -6.791229 
O 	 1.946192 	 -0.754023 	 0.542471 
O 	 3.182406 	 -1.944471 	 4.033443 
O 	 2.396917 	 4.158369 	 2.581219 
O 	 1.245325 	 -5.508872 	 5.914377 
O 	 3.456012 	 3.379707 	 5.165049 
O 	 1.615700 	 -2.241019 	 -5.907842 
O 	 5.466056 	 2.455293 	 -3.974890 
O 	 -1.864556 	 -6.198702 	 5.303254 
O 	 -5.519219 	 -5.082937 	 6.316877 
O 	 -6.658528 	 1.288601 	 2.079017 
O 	 3.995486 	 7.428352 	 -4.001943 
O 	 2.632098 	 1.586315 	 -0.768106 
K 	 -2.483226 	 4.300039 	 0.930782 
