333
conformation = 3
H 	 -3.057809 	 6.826008 	 -4.309516 
H 	 -2.320957 	 -6.723365 	 -3.636637 
H 	 -6.371803 	 4.233519 	 1.058149 
H 	 -5.530142 	 3.061217 	 0.565174 
H 	 -0.616307 	 7.039886 	 3.329757 
H 	 -0.915322 	 7.727843 	 1.999586 
H 	 -5.398869 	 -7.058572 	 -5.872491 
H 	 -3.889386 	 -6.961080 	 -5.624012 
H 	 -1.838669 	 5.350764 	 6.119205 
H 	 -2.288816 	 5.760911 	 4.656525 
H 	 -4.308087 	 5.011579 	 4.021532 
H 	 -3.811491 	 6.308399 	 3.404706 
H 	 1.613988 	 3.274689 	 -5.932576 
H 	 0.971961 	 4.731602 	 -6.204612 
H 	 -2.288765 	 -0.618901 	 4.025426 
H 	 -0.780103 	 -0.569163 	 3.554230 
H 	 1.385550 	 5.051278 	 -1.972146 
H 	 0.950754 	 5.679285 	 -0.713554 
H 	 -0.750920 	 -2.791436 	 3.689100 
H 	 0.518183 	 -3.670747 	 3.972680 
H 	 -7.393827 	 -7.085905 	 -4.624194 
H 	 7.184820 	 -5.938222 	 -5.575168 
H 	 1.693415 	 -0.877078 	 3.975656 
H 	 1.174719 	 0.492235 	 3.266618 
H 	 6.479566 	 -2.745259 	 3.178243 
H 	 6.230284 	 -2.126437 	 4.687653 
H 	 -4.152279 	 -1.271956 	 5.431231 
H 	 -3.133063 	 -0.332699 	 6.357527 
H 	 5.373932 	 -7.114540 	 -0.527431 
H 	 4.120385 	 -6.154954 	 -0.456267 
H 	 -4.536019 	 -6.591143 	 3.612027 
H 	 -3.188219 	 -6.546167 	 4.330119 
H 	 -7.391900 	 5.854092 	 2.307157 
H 	 6.458235 	 4.591607 	 2.258492 
H 	 -0.420112 	 2.015292 	 0.211809 
H 	 -1.731906 	 1.386434 	 -0.379207 
H 	 2.280346 	 1.900881 	 -3.923252 
H 	 0.897230 	 1.232929 	 -3.792205 
H 	 4.139989 	 0.802288 	 -1.598082 
H 	 5.217666 	 1.241887 	 -2.672484 
H 	 1.823314 	 -4.863639 	 -3.776733 
H 	 2.146343 	 -4.206792 	 -2.347689 
H 	 5.523229 	 -1.503291 	 -2.006331 
H 	 5.676437 	 -3.031045 	 -2.241889 
H 	 -2.842690 	 4.403954 	 -4.115748 
H 	 -4.319264 	 4.789323 	 -4.705076 
H 	 -1.368064 	 -6.107958 	 -7.374831 
H 	 -1.568616 	 -6.444509 	 -5.890786 
H 	 5.930178 	 3.903967 	 6.148380 
H 	 5.420166 	 3.978261 	 -7.275709 
H 	 5.401520 	 7.573857 	 3.065014 
H 	 4.213195 	 -6.442777 	 2.844847 
H 	 3.004784 	 -4.042113 	 1.561090 
H 	 2.141640 	 -4.792573 	 2.594042 
H 	 5.543563 	 -5.253746 	 -3.005141 
H 	 4.118856 	 -4.865734 	 -3.415497 
H 	 -3.172170 	 -3.598114 	 -0.666265 
H 	 -3.239041 	 -3.204584 	 0.843203 
H 	 -2.978701 	 2.019146 	 -2.882104 
H 	 -3.262724 	 2.485775 	 -1.441357 
H 	 -6.646309 	 -6.672484 	 2.304086 
H 	 -5.781232 	 7.096060 	 1.571978 
H 	 -3.355870 	 1.345204 	 4.459076 
H 	 -4.102682 	 2.786312 	 4.448507 
H 	 -4.763565 	 6.833601 	 -1.401692 
H 	 -5.064095 	 5.894138 	 -2.509547 
H 	 -2.183217 	 -1.302676 	 0.255553 
H 	 -1.899635 	 -0.502602 	 1.471903 
H 	 -1.511356 	 3.893759 	 -6.672754 
H 	 -3.009993 	 4.271602 	 -6.862066 
H 	 -6.312852 	 3.612852 	 -5.013550 
H 	 -6.922712 	 4.927713 	 -4.807468 
H 	 -0.782461 	 3.444963 	 -2.694761 
H 	 -0.402944 	 3.468762 	 -4.212441 
H 	 4.525292 	 4.538431 	 -1.976090 
H 	 6.021996 	 4.060819 	 -1.857626 
H 	 4.755644 	 1.222563 	 4.755838 
H 	 4.868165 	 0.869055 	 3.233832 
H 	 -5.947498 	 -0.123549 	 1.548022 
H 	 -6.644053 	 -1.461554 	 1.423501 
H 	 3.564887 	 -3.644492 	 -0.675313 
H 	 4.834085 	 -3.644921 	 0.383019 
H 	 -6.449196 	 2.057370 	 5.498372 
H 	 -5.728213 	 0.714765 	 5.709173 
H 	 -0.525257 	 -2.437287 	 6.006732 
H 	 0.129943 	 -3.344120 	 7.039991 
H 	 -3.660862 	 -6.938455 	 1.337002 
H 	 -4.178237 	 -6.529035 	 -0.030888 
H 	 4.696094 	 -1.308619 	 2.890564 
H 	 3.837298 	 -0.792046 	 1.730956 
H 	 6.684068 	 5.779897 	 -3.065348 
H 	 5.605189 	 6.554379 	 -3.728823 
H 	 -1.691161 	 -4.827969 	 0.828316 
H 	 -0.338475 	 -5.486045 	 0.097715 
H 	 0.822482 	 -3.044773 	 1.788755 
H 	 -0.383459 	 -3.140247 	 0.742163 
H 	 4.537099 	 2.534329 	 -4.181577 
H 	 3.256554 	 2.019797 	 -5.699074 
H 	 -0.721125 	 -0.597227 	 -4.555963 
H 	 -0.888545 	 0.485985 	 -5.525256 
H 	 1.631981 	 7.047307 	 -6.798164 
H 	 0.177027 	 6.944197 	 -6.236083 
H 	 -7.482166 	 -3.840884 	 0.254155 
H 	 6.760848 	 -2.546781 	 0.028605 
H 	 -6.225610 	 1.285942 	 -3.684980 
H 	 -4.954961 	 2.070008 	 -3.133053 
H 	 7.034482 	 -1.809416 	 -4.376352 
H 	 5.983470 	 -2.823400 	 -4.114828 
H 	 5.210310 	 2.946587 	 1.098136 
H 	 4.872950 	 4.088957 	 0.050904 
H 	 -5.552119 	 -4.560369 	 3.661409 
H 	 -6.804450 	 -5.347305 	 4.242876 
H 	 -2.530876 	 5.806394 	 -1.873357 
H 	 -1.046573 	 5.434488 	 -1.560657 
H 	 -7.523105 	 -6.374645 	 -1.915224 
H 	 -7.324118 	 -5.312909 	 -3.082122 
H 	 6.888619 	 6.124444 	 -0.684777 
H 	 -7.417007 	 7.293215 	 0.156859 
H 	 6.021188 	 1.088834 	 -0.398299 
H 	 5.509157 	 0.400694 	 0.907427 
H 	 2.952176 	 -2.899695 	 7.105644 
H 	 3.565396 	 -4.211831 	 6.621968 
H 	 6.896786 	 -0.191279 	 5.529973 
H 	 5.993032 	 -0.922116 	 6.631562 
H 	 -4.222062 	 -5.302003 	 -2.097859 
H 	 -5.510436 	 -4.858108 	 -1.578245 
H 	 2.383679 	 -2.045022 	 -0.744543 
H 	 2.791074 	 -2.048269 	 -2.262544 
H 	 1.466540 	 -5.732310 	 -1.380742 
H 	 1.656296 	 -6.981651 	 -0.464053 
H 	 2.549348 	 0.773361 	 6.778179 
H 	 3.987885 	 0.780687 	 -7.366476 
H 	 4.389615 	 -5.903622 	 -7.359518 
H 	 3.747115 	 -6.742326 	 6.512064 
H 	 -0.970606 	 0.746018 	 6.695664 
H 	 -2.141924 	 1.687289 	 6.772607 
H 	 -2.180546 	 -5.486985 	 -1.352476 
H 	 -1.204212 	 -6.577837 	 -1.854862 
H 	 2.383493 	 4.181737 	 -3.801572 
H 	 2.927578 	 5.687229 	 -3.481650 
H 	 0.732491 	 -5.195684 	 -5.838941 
H 	 1.419390 	 -3.882530 	 -5.498176 
H 	 -4.556486 	 -2.561317 	 2.338206 
H 	 -3.150790 	 -2.753016 	 3.124228 
H 	 1.086377 	 2.640722 	 1.937847 
H 	 -0.239327 	 2.276131 	 2.702332 
H 	 6.932606 	 5.914037 	 4.337975 
H 	 6.695703 	 6.273460 	 5.815780 
H 	 1.560222 	 3.334351 	 5.560743 
H 	 0.551056 	 3.579086 	 6.721919 
H 	 1.755795 	 6.047548 	 5.528032 
H 	 0.452790 	 5.690592 	 4.885032 
H 	 -6.773905 	 1.311546 	 -6.229159 
H 	 7.202702 	 2.395473 	 -6.843552 
H 	 -6.077010 	 3.644959 	 -2.474164 
H 	 -6.352114 	 4.373293 	 -1.106837 
H 	 -2.132429 	 -2.693374 	 -7.187083 
H 	 -2.727502 	 -3.934327 	 -6.253259 
H 	 4.227895 	 5.832603 	 -7.415092 
H 	 3.995839 	 5.061574 	 6.064859 
H 	 2.432450 	 -0.121277 	 -3.439502 
H 	 3.678385 	 -0.789521 	 -4.080301 
H 	 -3.585655 	 1.164261 	 0.932587 
H 	 -4.600008 	 1.818077 	 1.927563 
H 	 0.885423 	 0.122470 	 5.691518 
H 	 0.851338 	 -0.709657 	 6.962600 
H 	 1.569166 	 7.730936 	 2.446542 
H 	 2.134988 	 -7.097487 	 3.794396 
H 	 -1.911839 	 2.925421 	 3.847259 
H 	 -0.581568 	 3.354850 	 4.380848 
H 	 -3.996944 	 0.503780 	 -6.018350 
H 	 -4.835731 	 -0.654516 	 -6.745636 
H 	 6.347603 	 -4.556584 	 4.717091 
H 	 6.203388 	 -6.166976 	 4.773301 
H 	 -5.639483 	 -0.795971 	 -3.465587 
H 	 -5.837640 	 -0.611224 	 -4.980236 
H 	 -5.147583 	 -3.786083 	 -4.815416 
H 	 -5.218751 	 -5.244305 	 -4.229338 
H 	 -3.959762 	 -0.147173 	 -1.689032 
H 	 -4.810523 	 -0.905992 	 -0.719756 
H 	 5.200033 	 4.815367 	 -5.092185 
H 	 3.880166 	 4.183301 	 -5.631786 
H 	 -6.928506 	 -2.838618 	 -6.224156 
H 	 -5.807600 	 -3.010646 	 -7.232662 
H 	 -6.502244 	 4.149619 	 4.206227 
H 	 -5.765411 	 4.421531 	 5.603901 
H 	 1.785562 	 5.527578 	 1.303588 
H 	 0.414228 	 6.279017 	 1.503738 
H 	 -2.278166 	 -2.019467 	 -3.748508 
H 	 -2.625898 	 -2.008167 	 -5.244198 
H 	 -5.527321 	 5.152281 	 -6.871783 
H 	 -4.782955 	 6.097162 	 7.158053 
H 	 6.552751 	 -4.736661 	 -7.436678 
H 	 5.794412 	 -4.274997 	 -5.996883 
H 	 -5.303613 	 -3.324138 	 5.345475 
H 	 -6.414726 	 -2.415984 	 4.710821 
H 	 6.155179 	 0.352998 	 -6.336717 
H 	 5.540520 	 -1.030624 	 -6.035363 
H 	 1.218649 	 -0.968726 	 1.099862 
H 	 1.977662 	 0.238560 	 0.388062 
H 	 2.898608 	 -2.673971 	 3.550075 
H 	 3.361521 	 -2.235185 	 4.975021 
H 	 2.383929 	 4.399216 	 3.525852 
H 	 3.464834 	 4.068669 	 2.375009 
H 	 1.894362 	 -5.620035 	 6.500857 
H 	 1.687046 	 -5.509984 	 5.045732 
H 	 3.536077 	 2.754010 	 5.925868 
H 	 4.101132 	 3.100592 	 4.568842 
H 	 0.900654 	 -1.530494 	 -6.072911 
H 	 2.007480 	 -1.574870 	 -5.010775 
H 	 5.985315 	 1.978740 	 -4.289259 
H 	 2.246029 	 1.799617 	 -1.579951 
H 	 -0.961480 	 -5.805415 	 5.186747 
H 	 -1.720061 	 -7.093660 	 5.532048 
H 	 -4.876285 	 -5.197146 	 7.060752 
H 	 -5.936745 	 -5.774077 	 6.203444 
H 	 -6.662722 	 1.095551 	 3.209490 
H 	 -7.494433 	 1.418257 	 1.975622 
H 	 3.945770 	 -7.067294 	 -2.962924 
H 	 3.782391 	 -6.801060 	 -4.471960 
H 	 3.150363 	 2.450999 	 -0.422401 
O 	 -2.586259 	 7.678565 	 -4.460495 
O 	 -5.703011 	 3.973218 	 0.347453 
O 	 -0.963292 	 6.862500 	 2.463373 
O 	 -4.529443 	 -7.072308 	 -6.346989 
O 	 -1.623388 	 5.931204 	 5.363336 
O 	 -3.620204 	 5.331893 	 3.396551 
O 	 0.740671 	 3.785014 	 -6.057391 
O 	 -1.659961 	 -0.867280 	 3.323621 
O 	 0.600223 	 5.046685 	 -1.322643 
O 	 -0.322459 	 -3.402074 	 4.340193 
O 	 -6.981630 	 -6.299927 	 -5.019422 
O 	 1.036216 	 -0.101651 	 4.023531 
O 	 6.610116 	 -2.900259 	 4.105139 
O 	 -3.560048 	 -0.498880 	 5.504743 
O 	 4.452220 	 -7.028831 	 -0.783828 
O 	 -3.631432 	 -6.887235 	 3.514439 
O 	 7.185345 	 5.001124 	 2.703642 
O 	 -1.117167 	 2.129221 	 -0.479159 
O 	 1.710279 	 1.339381 	 -3.297780 
O 	 4.947497 	 0.436059 	 -2.020863 
O 	 2.335598 	 -4.963924 	 -2.941163 
O 	 6.203437 	 -2.259139 	 -2.015443 
O 	 -3.331421 	 4.777634 	 -4.814298 
O 	 -0.969834 	 -5.963060 	 -6.481560 
O 	 6.115255 	 3.590703 	 7.047287 
O 	 5.172298 	 -6.360243 	 2.954224 
O 	 2.412404 	 -3.863644 	 2.326663 
O 	 5.043266 	 -4.665612 	 -3.632989 
O 	 -2.591858 	 -3.284136 	 0.050035 
O 	 -3.507289 	 1.818527 	 -2.091641 
O 	 -6.678605 	 7.350530 	 1.846212 
O 	 -3.214635 	 2.302340 	 4.577173 
O 	 -4.418359 	 6.613032 	 -2.288232 
O 	 -2.280924 	 -0.395482 	 0.595430 
O 	 -2.199346 	 3.898213 	 -7.355024 
O 	 -6.166411 	 4.495755 	 -5.248027 
O 	 -1.175875 	 3.244464 	 -3.606997 
O 	 5.319955 	 4.553021 	 -1.418002 
O 	 5.169605 	 1.554538 	 3.918389 
O 	 -5.720229 	 -1.102567 	 1.386233 
O 	 4.021840 	 -4.118010 	 0.077816 
O 	 -6.561918 	 1.111458 	 5.414866 
O 	 -0.315191 	 -2.514758 	 6.920468 
O 	 -4.105809 	 7.578610 	 0.557055 
O 	 4.742451 	 -0.673321 	 2.103854 
O 	 6.430053 	 6.034826 	 -3.950765 
O 	 -0.851735 	 -5.301136 	 0.927953 
O 	 0.144384 	 -2.548190 	 1.269141 
O 	 3.078715 	 2.615426 	 -4.952502 
O 	 -0.156363 	 -0.026222 	 -5.162381 
O 	 0.893427 	 6.421821 	 -6.675538 
O 	 6.841327 	 -3.202605 	 0.782214 
O 	 -5.852053 	 2.144257 	 -3.601434 
O 	 6.345255 	 -2.297192 	 -4.884923 
O 	 4.904211 	 3.893582 	 1.078326 
O 	 -6.137330 	 -5.282054 	 3.524731 
O 	 -1.998652 	 5.291684 	 -1.281019 
O 	 -7.559660 	 -5.409357 	 -2.124333 
O 	 7.129360 	 7.056450 	 -0.722357 
O 	 5.965958 	 1.224454 	 0.554943 
O 	 3.682851 	 -3.248650 	 6.539220 
O 	 6.231726 	 -0.871716 	 5.690467 
O 	 -4.568347 	 -4.980258 	 -1.255360 
O 	 2.568671 	 -2.613566 	 -1.489700 
O 	 0.974551 	 -6.396250 	 -0.888480 
O 	 3.352210 	 1.341563 	 7.011019 
O 	 3.517929 	 -6.302511 	 7.328424 
O 	 -1.860579 	 0.788810 	 7.095258 
O 	 -1.836581 	 -5.909764 	 -2.196190 
O 	 2.563805 	 4.850082 	 -3.085578 
O 	 1.605332 	 -4.854216 	 -5.496782 
O 	 -3.789822 	 -3.186949 	 2.456823 
O 	 0.412413 	 1.914237 	 1.995111 
O 	 7.032795 	 6.684581 	 4.960741 
O 	 0.653269 	 3.660064 	 5.729459 
O 	 1.167668 	 6.365412 	 4.813067 
O 	 7.270021 	 1.700614 	 -6.122258 
O 	 -6.581191 	 4.430467 	 -2.113741 
O 	 -2.881807 	 -3.036798 	 -6.698333 
O 	 4.168823 	 5.964154 	 6.485317 
O 	 2.795400 	 -1.003508 	 -3.701819 
O 	 -4.031761 	 2.017340 	 1.167091 
O 	 0.866357 	 0.237671 	 6.706916 
O 	 1.914783 	 -6.482349 	 3.060032 
O 	 -1.071266 	 3.397897 	 3.569013 
O 	 -4.858850 	 0.305706 	 -6.510665 
O 	 6.620371 	 -5.387079 	 5.156132 
O 	 -6.340612 	 -0.668376 	 -4.136243 
O 	 -4.740726 	 -4.384761 	 -4.120339 
O 	 -4.656156 	 -0.824998 	 -1.652327 
O 	 4.554501 	 4.871188 	 -5.845066 
O 	 -5.963479 	 -2.654017 	 -6.340601 
O 	 -5.768938 	 3.878863 	 4.793080 
O 	 1.262634 	 6.373328 	 1.150036 
O 	 -2.403490 	 -1.359425 	 -4.455452 
O 	 -5.160586 	 5.207882 	 7.090110 
O 	 6.152397 	 -5.015476 	 -6.575185 
O 	 -5.499352 	 -2.427208 	 5.069911 
O 	 5.465027 	 -0.296346 	 -6.661159 
O 	 2.071407 	 -0.660072 	 0.678244 
O 	 3.123119 	 -1.869042 	 4.112414 
O 	 2.481977 	 4.182708 	 2.578168 
O 	 1.246488 	 -5.374218 	 5.868790 
O 	 3.547462 	 3.509923 	 5.262797 
O 	 1.579109 	 -2.127503 	 -5.761676 
O 	 5.437688 	 2.474957 	 -3.639718 
O 	 -1.855512 	 -6.109224 	 5.478613 
O 	 -5.502963 	 -4.921638 	 6.377489 
O 	 -6.580102 	 1.345208 	 2.254522 
O 	 3.950910 	 7.377198 	 -3.813043 
O 	 2.797041 	 1.609957 	 -0.756583 
K 	 -2.408441 	 4.393715 	 1.087271 
