333
conformation = 40
H 	 -2.603335 	 6.686762 	 -4.458556 
H 	 -2.728135 	 -6.839942 	 -3.710525 
H 	 -6.158089 	 3.705849 	 1.036151 
H 	 -4.977793 	 3.230816 	 0.185430 
H 	 -0.834854 	 6.703944 	 3.080174 
H 	 -1.110198 	 -7.153487 	 1.965318 
H 	 -5.326872 	 -7.002498 	 -5.945399 
H 	 -3.780335 	 -7.255015 	 -6.049987 
H 	 -1.696061 	 5.383596 	 6.082798 
H 	 -2.230461 	 5.409604 	 4.601452 
H 	 -4.451040 	 4.859010 	 3.609437 
H 	 -3.897849 	 6.219406 	 3.358125 
H 	 1.418433 	 3.140794 	 -5.598210 
H 	 0.889309 	 4.487334 	 -6.155301 
H 	 -2.249969 	 -0.990774 	 3.962602 
H 	 -0.685711 	 -0.698223 	 3.439824 
H 	 1.215588 	 5.100344 	 -2.139609 
H 	 0.824271 	 5.688248 	 -0.779699 
H 	 -0.739769 	 -2.655242 	 3.570380 
H 	 0.527419 	 -3.554661 	 3.851761 
H 	 7.241247 	 7.599481 	 -4.846395 
H 	 7.191240 	 -6.018035 	 -5.686012 
H 	 1.884738 	 -0.766552 	 3.861756 
H 	 1.001475 	 0.482140 	 3.137026 
H 	 6.388972 	 -2.838252 	 2.987022 
H 	 6.476431 	 -2.195924 	 4.489215 
H 	 -4.169220 	 -1.070605 	 5.666958 
H 	 -2.868327 	 -0.062719 	 5.926309 
H 	 5.306829 	 7.593597 	 -1.081368 
H 	 4.338095 	 -6.136012 	 -0.651311 
H 	 -4.494377 	 -6.305458 	 3.542657 
H 	 -2.920070 	 -6.424123 	 3.836083 
H 	 -7.375338 	 5.773042 	 2.299830 
H 	 6.374096 	 4.549913 	 2.143964 
H 	 -0.308186 	 2.333894 	 -0.101337 
H 	 -1.212054 	 1.148628 	 -0.634595 
H 	 2.218596 	 1.701434 	 -4.137353 
H 	 0.812530 	 0.908419 	 -3.577086 
H 	 4.245869 	 0.644239 	 -1.773255 
H 	 5.345521 	 0.962895 	 -2.867001 
H 	 1.865249 	 -5.186206 	 -3.830631 
H 	 2.077818 	 -4.268819 	 -2.549617 
H 	 5.621955 	 -1.555215 	 -2.115909 
H 	 5.597480 	 -3.103856 	 -2.255567 
H 	 -2.836526 	 3.994787 	 -4.226915 
H 	 -4.234163 	 4.629110 	 -4.906442 
H 	 -1.463383 	 -6.316216 	 -7.308766 
H 	 -1.480569 	 -6.511063 	 -5.755630 
H 	 5.701933 	 3.384041 	 5.891654 
H 	 5.507860 	 3.873583 	 -7.558966 
H 	 5.004769 	 7.515042 	 3.208143 
H 	 4.207179 	 -6.419617 	 2.381167 
H 	 3.087338 	 -3.925375 	 1.459962 
H 	 2.348090 	 -4.827292 	 2.292208 
H 	 5.449446 	 -5.159207 	 -2.955165 
H 	 4.051527 	 -4.801874 	 -3.447382 
H 	 -3.402175 	 -3.624676 	 -0.692224 
H 	 -3.078945 	 -3.584253 	 0.830131 
H 	 -2.784125 	 1.661236 	 -2.994316 
H 	 -3.434487 	 2.439616 	 -1.750410 
H 	 -6.565593 	 -6.829705 	 2.373454 
H 	 -5.664576 	 7.361924 	 1.291709 
H 	 -3.453784 	 1.285340 	 4.646061 
H 	 -3.921177 	 2.747637 	 4.711254 
H 	 -4.617578 	 6.413396 	 -1.458955 
H 	 -5.213573 	 5.620461 	 -2.572161 
H 	 -2.825057 	 -1.287719 	 -0.076901 
H 	 -2.092388 	 -0.876107 	 1.299007 
H 	 -1.224775 	 3.622015 	 -7.142097 
H 	 -2.567157 	 4.085015 	 -6.758061 
H 	 -6.283700 	 3.514520 	 -4.900289 
H 	 -6.996184 	 4.915250 	 -5.151672 
H 	 -0.606207 	 2.920414 	 -3.066261 
H 	 -0.510703 	 3.518748 	 -4.415608 
H 	 4.572135 	 4.754500 	 -2.041779 
H 	 5.737808 	 3.733604 	 -2.177060 
H 	 5.154600 	 0.816437 	 4.501287 
H 	 4.866808 	 0.938184 	 3.072354 
H 	 -6.011382 	 -0.493893 	 1.645564 
H 	 -6.732794 	 -1.698334 	 1.125816 
H 	 3.908532 	 -3.506259 	 -0.536228 
H 	 5.109126 	 -4.211702 	 0.321967 
H 	 -6.292517 	 1.830870 	 5.330156 
H 	 -5.656915 	 0.387250 	 5.591887 
H 	 -0.261790 	 -2.907133 	 5.815925 
H 	 0.061027 	 -3.592909 	 7.282376 
H 	 -3.580516 	 -6.991361 	 1.329938 
H 	 -4.144276 	 -6.512181 	 -0.071021 
H 	 4.395994 	 -1.019177 	 2.730689 
H 	 3.682915 	 -0.719424 	 1.456796 
H 	 6.654820 	 5.577979 	 -3.218776 
H 	 5.622078 	 6.410228 	 -4.039289 
H 	 -1.545487 	 -4.784587 	 0.447889 
H 	 -0.199187 	 -5.638029 	 0.280285 
H 	 0.932078 	 -3.275684 	 1.209215 
H 	 -0.567033 	 -3.043001 	 0.837373 
H 	 4.615200 	 2.364490 	 -4.499771 
H 	 3.075807 	 2.126075 	 -5.972444 
H 	 -0.900553 	 -0.654453 	 -5.131291 
H 	 -0.310767 	 0.527003 	 -5.955551 
H 	 1.591022 	 7.012033 	 -6.969380 
H 	 0.063986 	 7.002769 	 -6.983569 
H 	 -7.582083 	 -4.133306 	 0.505570 
H 	 6.767643 	 -2.903743 	 -0.321579 
H 	 -6.396193 	 1.090554 	 -3.998937 
H 	 -5.203456 	 1.745147 	 -3.108125 
H 	 7.116249 	 -1.948092 	 -4.463697 
H 	 6.022927 	 -2.982053 	 -4.411817 
H 	 5.331104 	 2.824652 	 0.767839 
H 	 5.194829 	 4.229901 	 0.261343 
H 	 -5.677461 	 -4.556900 	 3.277406 
H 	 -6.820778 	 -5.428598 	 3.902261 
H 	 -2.528506 	 5.930158 	 -1.969773 
H 	 -1.179969 	 5.108398 	 -1.727009 
H 	 -7.644427 	 -6.472663 	 -2.025377 
H 	 -7.201753 	 -5.430479 	 -3.065507 
H 	 6.788303 	 6.112083 	 -1.074187 
H 	 -7.485858 	 7.051126 	 0.028960 
H 	 5.838555 	 0.880440 	 -0.499070 
H 	 5.625231 	 0.554917 	 0.999849 
H 	 3.466324 	 -2.797444 	 7.282877 
H 	 3.330876 	 -4.157225 	 6.408322 
H 	 6.959534 	 -0.276875 	 5.487364 
H 	 5.885002 	 -0.970724 	 6.475863 
H 	 -4.513529 	 -5.194705 	 -2.275928 
H 	 -5.536313 	 -5.218033 	 -1.120387 
H 	 2.023314 	 -2.059556 	 -0.938198 
H 	 2.507547 	 -2.073234 	 -2.424912 
H 	 1.588187 	 -6.606896 	 -1.641292 
H 	 1.533502 	 -7.087127 	 -0.183598 
H 	 2.539483 	 0.754689 	 6.899021 
H 	 4.033274 	 0.436537 	 6.973526 
H 	 4.246432 	 -6.049278 	 -7.252655 
H 	 3.811586 	 7.553782 	 6.860395 
H 	 -0.940228 	 0.740145 	 6.917479 
H 	 -2.034035 	 1.828273 	 6.857569 
H 	 -2.095469 	 -5.504398 	 -1.557727 
H 	 -1.075334 	 -6.579411 	 -1.878315 
H 	 2.661302 	 3.953803 	 -3.840992 
H 	 2.844727 	 5.525196 	 -3.758768 
H 	 0.849823 	 -5.408981 	 -5.956570 
H 	 1.573467 	 -3.977930 	 -5.945773 
H 	 -4.479919 	 -2.509132 	 2.217915 
H 	 -3.110235 	 -2.944881 	 2.736358 
H 	 1.346194 	 2.261495 	 1.977594 
H 	 -0.155678 	 2.363400 	 2.451140 
H 	 6.940811 	 5.807407 	 4.374980 
H 	 6.554921 	 6.390879 	 5.677451 
H 	 1.625019 	 3.557384 	 5.581124 
H 	 0.464255 	 3.749183 	 6.519316 
H 	 1.613413 	 5.965680 	 5.504087 
H 	 0.279608 	 5.822464 	 4.961296 
H 	 -6.645260 	 1.301967 	 -6.535484 
H 	 7.000666 	 2.018221 	 -7.144275 
H 	 -6.853544 	 3.660885 	 -2.676379 
H 	 -6.218338 	 4.056348 	 -1.288269 
H 	 -2.278041 	 -3.172053 	 -7.431677 
H 	 -2.960554 	 -3.796847 	 -6.108742 
H 	 4.044088 	 5.522395 	 7.189357 
H 	 4.006874 	 5.151506 	 5.742207 
H 	 2.373923 	 -0.185587 	 -3.679127 
H 	 3.750935 	 -0.799532 	 -3.641450 
H 	 -3.493172 	 1.010219 	 0.571251 
H 	 -4.577948 	 1.584856 	 1.627592 
H 	 0.873834 	 0.018960 	 5.403270 
H 	 0.473915 	 -0.803046 	 6.667849 
H 	 1.924963 	 7.549864 	 2.277175 
H 	 1.583902 	 -7.232215 	 3.702798 
H 	 -1.857728 	 3.119267 	 3.873860 
H 	 -0.433488 	 3.513541 	 4.252623 
H 	 -3.880196 	 0.546974 	 -6.742082 
H 	 -4.784001 	 -0.665212 	 -6.798560 
H 	 6.502478 	 -4.448627 	 4.759272 
H 	 6.181322 	 -6.104550 	 4.691758 
H 	 -5.700544 	 -1.003156 	 -3.354644 
H 	 -5.380571 	 -0.555367 	 -4.688910 
H 	 -5.296117 	 -3.710062 	 -4.923782 
H 	 -5.032179 	 -5.194919 	 -4.557469 
H 	 -4.356947 	 -0.065558 	 -1.829065 
H 	 -5.369177 	 -0.860848 	 -1.033364 
H 	 5.362953 	 5.052391 	 -5.537807 
H 	 4.224141 	 3.951975 	 -5.436891 
H 	 -7.062971 	 -2.632884 	 -6.242632 
H 	 -5.859873 	 -3.063657 	 -7.122030 
H 	 -6.331053 	 4.185761 	 4.128520 
H 	 -5.612532 	 4.398059 	 5.524566 
H 	 1.778387 	 5.500581 	 1.460897 
H 	 0.665254 	 6.583048 	 1.252730 
H 	 -2.594258 	 -2.230343 	 -3.965355 
H 	 -2.691392 	 -1.788950 	 -5.377296 
H 	 -5.636127 	 4.849416 	 -7.162602 
H 	 -5.219099 	 6.127947 	 7.244073 
H 	 6.410391 	 -5.005498 	 7.196548 
H 	 5.785750 	 -4.252538 	 -6.436733 
H 	 -5.363799 	 -3.261003 	 5.542342 
H 	 -6.344084 	 -2.455891 	 4.584163 
H 	 6.138101 	 0.236837 	 -6.648853 
H 	 5.785309 	 -1.166976 	 -6.088143 
H 	 1.128830 	 -1.250075 	 0.628472 
H 	 1.892024 	 0.140688 	 0.151915 
H 	 2.964318 	 -2.688783 	 3.378573 
H 	 3.396196 	 -2.438477 	 4.931089 
H 	 2.562545 	 4.322761 	 3.538545 
H 	 3.349889 	 4.063532 	 2.242292 
H 	 2.101381 	 -5.900525 	 6.450539 
H 	 1.674034 	 -5.561286 	 5.007404 
H 	 3.491911 	 2.616923 	 5.847440 
H 	 3.774054 	 2.798449 	 4.381327 
H 	 0.873665 	 -1.700043 	 -6.002082 
H 	 2.109277 	 -1.891395 	 -5.139857 
H 	 6.163978 	 2.704589 	 -4.671703 
H 	 2.140459 	 1.695816 	 -1.595410 
H 	 -1.027082 	 -5.688305 	 5.200182 
H 	 -1.501405 	 -7.196525 	 5.337850 
H 	 -5.130097 	 -5.869707 	 6.910438 
H 	 -6.320666 	 -5.475742 	 5.919398 
H 	 -7.060844 	 1.222513 	 2.957873 
H 	 -7.392189 	 1.208128 	 1.374052 
H 	 3.908477 	 -6.963273 	 -3.150818 
H 	 3.873162 	 -6.782462 	 -4.624265 
H 	 2.892797 	 2.425531 	 -0.365290 
O 	 -2.596792 	 -7.238037 	 -4.590042 
O 	 -5.669019 	 3.959827 	 0.261919 
O 	 -0.831870 	 6.815263 	 2.082393 
O 	 -4.627248 	 -7.242860 	 -6.593409 
O 	 -1.711217 	 5.948212 	 5.270777 
O 	 -3.627389 	 5.275972 	 3.246064 
O 	 0.678145 	 3.519771 	 -6.156447 
O 	 -1.617665 	 -1.023551 	 3.210716 
O 	 0.565403 	 4.938873 	 -1.439569 
O 	 -0.394763 	 -3.382507 	 4.113079 
O 	 -7.057642 	 -6.574503 	 -5.163291 
O 	 1.041433 	 -0.233112 	 3.843698 
O 	 6.698322 	 -3.001085 	 3.924282 
O 	 -3.555449 	 -0.413883 	 5.282372 
O 	 4.351205 	 -7.011969 	 -1.082893 
O 	 -3.686511 	 -6.912661 	 3.427511 
O 	 7.191959 	 4.867720 	 2.627411 
O 	 -1.072721 	 2.119502 	 -0.675774 
O 	 1.744681 	 1.190140 	 -3.271514 
O 	 5.145997 	 0.360381 	 -2.083157 
O 	 2.189372 	 -5.168932 	 -2.895032 
O 	 6.193427 	 -2.335782 	 -2.003666 
O 	 -3.264416 	 4.670860 	 -4.885932 
O 	 -0.923829 	 -6.110647 	 -6.512324 
O 	 6.213939 	 3.474823 	 6.736168 
O 	 5.086018 	 -6.501530 	 2.822210 
O 	 2.411933 	 -3.884236 	 2.165154 
O 	 4.981627 	 -4.922497 	 -3.771013 
O 	 -2.629617 	 -3.536447 	 -0.083580 
O 	 -3.594996 	 1.784383 	 -2.449374 
O 	 -6.553694 	 7.278736 	 1.744490 
O 	 -3.189274 	 2.217092 	 4.476168 
O 	 -4.635293 	 6.403685 	 -2.438684 
O 	 -2.331487 	 -0.572656 	 0.386582 
O 	 -2.080217 	 3.904797 	 -7.560216 
O 	 -6.152899 	 4.450715 	 -5.350888 
O 	 -1.161628 	 3.209451 	 -3.774043 
O 	 5.482994 	 4.570045 	 -1.693571 
O 	 5.098462 	 1.518432 	 3.802318 
O 	 -5.830035 	 -1.372465 	 1.252609 
O 	 4.191919 	 -4.308147 	 0.014574 
O 	 -6.505085 	 0.842059 	 5.308576 
O 	 -0.309717 	 -2.797958 	 6.814458 
O 	 -4.051945 	 7.598392 	 0.512027 
O 	 4.620638 	 -0.705266 	 1.849921 
O 	 6.462966 	 5.871411 	 -4.176795 
O 	 -0.862171 	 -5.328406 	 0.896680 
O 	 0.244823 	 -2.608679 	 1.172408 
O 	 3.015987 	 2.502912 	 -5.061826 
O 	 -0.119017 	 -0.119563 	 -5.232515 
O 	 0.826148 	 6.417052 	 -6.874810 
O 	 6.916957 	 -3.274481 	 0.587161 
O 	 -5.889161 	 1.947139 	 -3.742629 
O 	 6.451860 	 -2.381055 	 -5.012156 
O 	 4.991345 	 3.708511 	 1.000680 
O 	 -6.035258 	 -5.501986 	 3.362505 
O 	 -2.058534 	 5.311550 	 -1.307875 
O 	 7.168727 	 -5.529488 	 -2.263385 
O 	 7.148463 	 7.018246 	 -0.904135 
O 	 6.079902 	 1.187300 	 0.444246 
O 	 3.723329 	 -3.262447 	 6.466572 
O 	 6.217125 	 -0.969299 	 5.543576 
O 	 -4.586051 	 -5.129912 	 -1.288092 
O 	 2.564571 	 -2.608217 	 -1.572156 
O 	 1.027639 	 -6.596944 	 -0.822890 
O 	 3.416541 	 1.175776 	 6.899464 
O 	 3.494140 	 -6.433336 	 7.138600 
O 	 -1.932691 	 0.872789 	 6.999366 
O 	 -1.791150 	 -6.044799 	 -2.268710 
O 	 2.687041 	 4.718220 	 -3.259249 
O 	 1.673362 	 -4.961820 	 -5.684167 
O 	 -3.858388 	 -3.286344 	 2.273228 
O 	 0.514802 	 1.773291 	 1.926688 
O 	 6.924105 	 6.651073 	 4.828912 
O 	 0.649841 	 3.620439 	 5.590817 
O 	 1.141654 	 6.225110 	 4.683534 
O 	 -7.625876 	 1.513022 	 -6.366748 
O 	 -6.540678 	 4.412832 	 -2.147519 
O 	 -3.010442 	 -3.140060 	 -6.764276 
O 	 4.105393 	 5.931387 	 6.313474 
O 	 2.848573 	 -1.042909 	 -3.896039 
O 	 -4.016005 	 1.786679 	 0.837996 
O 	 0.784820 	 0.112366 	 6.449579 
O 	 1.886728 	 -6.656796 	 2.944646 
O 	 -0.995452 	 3.316648 	 3.427472 
O 	 -4.769742 	 0.282064 	 -6.583392 
O 	 6.704230 	 -5.387355 	 5.124090 
O 	 -6.201446 	 -0.748299 	 -4.185149 
O 	 -4.859286 	 -4.292301 	 -4.285702 
O 	 -4.736286 	 -0.978253 	 -1.822301 
O 	 4.576780 	 4.697166 	 -5.983145 
O 	 -6.101761 	 -2.500941 	 -6.360430 
O 	 -5.660366 	 3.832833 	 4.745576 
O 	 1.449436 	 6.152772 	 0.841164 
O 	 -2.339346 	 -1.470815 	 -4.519400 
O 	 -5.221010 	 5.172424 	 6.928194 
O 	 6.031255 	 -5.082697 	 -6.809080 
O 	 -5.448888 	 -2.445971 	 4.963804 
O 	 5.517701 	 -0.511363 	 -6.790860 
O 	 1.982490 	 -0.804290 	 0.540631 
O 	 3.237468 	 -1.992455 	 4.032951 
O 	 2.436286 	 4.112777 	 2.584380 
O 	 1.285515 	 -5.557351 	 5.930626 
O 	 3.498276 	 3.322586 	 5.172304 
O 	 1.669732 	 -2.293161 	 -5.915856 
O 	 5.517837 	 2.414193 	 -3.992616 
O 	 -1.815044 	 -6.248897 	 5.302463 
O 	 -5.472829 	 -5.139939 	 6.328578 
O 	 -6.617638 	 1.244171 	 2.082230 
O 	 4.047266 	 7.381851 	 -4.007578 
O 	 2.663529 	 1.545689 	 -0.758043 
K 	 -2.442382 	 4.251599 	 0.931125 
