333
conformation = 7
H 	 -3.007563 	 6.814626 	 -4.233098 
H 	 -2.373720 	 -6.768138 	 -3.621071 
H 	 -6.359534 	 4.197549 	 1.024766 
H 	 -5.394024 	 3.053432 	 0.513997 
H 	 -0.621002 	 7.053502 	 3.330148 
H 	 -0.960185 	 -7.131767 	 2.051269 
H 	 -5.383846 	 -7.095549 	 -5.808857 
H 	 -3.818637 	 -6.955579 	 -5.675263 
H 	 -1.846243 	 5.356754 	 6.126272 
H 	 -2.351629 	 5.748561 	 4.692865 
H 	 -4.314604 	 4.985281 	 4.040076 
H 	 -3.810657 	 6.306678 	 3.464137 
H 	 1.583331 	 3.273385 	 -5.899753 
H 	 1.033604 	 4.693107 	 -6.159063 
H 	 -2.312880 	 -0.717686 	 4.035275 
H 	 -0.757372 	 -0.475655 	 3.553469 
H 	 1.350555 	 5.065130 	 -1.970957 
H 	 0.912712 	 5.775786 	 -0.686784 
H 	 -0.774071 	 -2.780555 	 3.717657 
H 	 0.543892 	 -3.654529 	 3.971745 
H 	 -7.438781 	 -7.092649 	 -4.606673 
H 	 7.138494 	 -5.928136 	 -5.533181 
H 	 1.692505 	 -0.871404 	 4.017432 
H 	 1.123807 	 0.490179 	 3.240872 
H 	 6.439869 	 -2.710292 	 3.154665 
H 	 6.250854 	 -2.185806 	 4.672247 
H 	 -4.142284 	 -1.249379 	 5.463151 
H 	 -3.126826 	 -0.223779 	 6.366484 
H 	 5.394808 	 -7.125526 	 -0.567953 
H 	 4.150410 	 -6.148677 	 -0.407218 
H 	 -4.568511 	 -6.483655 	 3.604413 
H 	 -3.209133 	 -6.537195 	 4.361751 
H 	 -7.447216 	 5.876621 	 2.255438 
H 	 6.456056 	 4.580872 	 2.217229 
H 	 -0.388263 	 2.052021 	 0.188859 
H 	 -1.719904 	 1.371555 	 -0.361583 
H 	 2.252499 	 1.917027 	 -3.970919 
H 	 0.847165 	 1.163162 	 -3.784490 
H 	 4.125089 	 0.767428 	 -1.638449 
H 	 5.218019 	 1.176100 	 -2.632679 
H 	 1.845821 	 -4.814552 	 -3.787095 
H 	 2.176949 	 -4.207939 	 -2.339101 
H 	 5.530823 	 -1.530870 	 -1.970638 
H 	 5.671369 	 -3.097761 	 -2.245727 
H 	 -2.850169 	 4.360156 	 -4.005297 
H 	 -4.313642 	 4.789691 	 -4.709462 
H 	 -1.379582 	 -6.192204 	 -7.354529 
H 	 -1.537397 	 -6.448623 	 -5.801049 
H 	 5.897471 	 3.880615 	 6.134380 
H 	 5.372652 	 3.989592 	 -7.307227 
H 	 5.360173 	 7.619058 	 3.122878 
H 	 4.205103 	 -6.388680 	 2.752240 
H 	 3.005027 	 -4.044215 	 1.569489 
H 	 2.185003 	 -4.759161 	 2.528317 
H 	 5.466100 	 -5.262980 	 -2.977640 
H 	 4.084793 	 -4.866517 	 -3.425395 
H 	 -3.136135 	 -3.614991 	 -0.688338 
H 	 -3.226112 	 -3.193064 	 0.814964 
H 	 -3.004404 	 1.988217 	 -2.912701 
H 	 -3.290531 	 2.505084 	 -1.445735 
H 	 -6.584025 	 -6.639865 	 2.334867 
H 	 -5.746173 	 7.144830 	 1.568667 
H 	 -3.356246 	 1.351994 	 4.417503 
H 	 -4.048533 	 2.728940 	 4.500638 
H 	 -4.784462 	 6.794590 	 -1.405909 
H 	 -5.076347 	 5.869027 	 -2.493323 
H 	 -2.307994 	 -1.326456 	 0.207567 
H 	 -1.931602 	 -0.506407 	 1.484561 
H 	 -1.501687 	 3.869176 	 -6.699774 
H 	 -2.921131 	 4.204847 	 -6.820322 
H 	 -6.345093 	 3.544698 	 -5.010153 
H 	 -6.939243 	 4.952312 	 -4.885931 
H 	 -0.789482 	 3.369241 	 -2.714996 
H 	 -0.447318 	 3.522552 	 -4.201899 
H 	 4.533825 	 4.559209 	 -2.007775 
H 	 6.004983 	 3.992903 	 -1.904614 
H 	 4.733338 	 1.257224 	 4.693881 
H 	 4.821065 	 0.892007 	 3.273535 
H 	 -5.891299 	 -0.163931 	 1.491333 
H 	 -6.682663 	 -1.414773 	 1.413748 
H 	 3.583534 	 -3.588945 	 -0.673186 
H 	 4.863375 	 -3.740795 	 0.388173 
H 	 -6.412966 	 2.088037 	 5.542344 
H 	 -5.750416 	 0.681435 	 5.728491 
H 	 -0.468998 	 -2.436374 	 5.953481 
H 	 0.117798 	 -3.411698 	 7.048965 
H 	 -3.654822 	 -6.888512 	 1.353175 
H 	 -4.176324 	 -6.562152 	 -0.083983 
H 	 4.668528 	 -1.247154 	 2.852507 
H 	 3.793087 	 -0.797450 	 1.754601 
H 	 6.709514 	 5.811352 	 -3.053332 
H 	 5.569807 	 6.554904 	 -3.845500 
H 	 -1.688204 	 -4.820820 	 0.864181 
H 	 -0.413504 	 -5.439426 	 0.115652 
H 	 0.821871 	 -3.082836 	 1.722570 
H 	 -0.419890 	 -3.177062 	 0.777620 
H 	 4.570524 	 2.521787 	 -4.192268 
H 	 3.255268 	 2.051825 	 -5.730757 
H 	 -0.711959 	 -0.627414 	 -4.672854 
H 	 -0.865733 	 0.487089 	 -5.555857 
H 	 1.612774 	 7.061805 	 -6.805277 
H 	 0.153980 	 6.941739 	 -6.311978 
H 	 -7.504073 	 -3.915224 	 0.310586 
H 	 6.667267 	 -2.551328 	 0.068365 
H 	 -6.295647 	 1.245042 	 -3.696176 
H 	 -4.992528 	 1.982556 	 -3.114692 
H 	 7.034925 	 -1.817387 	 -4.403718 
H 	 5.946033 	 -2.814483 	 -4.173355 
H 	 5.163521 	 2.942823 	 1.054512 
H 	 4.930598 	 4.137724 	 0.162821 
H 	 -5.517953 	 -4.552176 	 3.685530 
H 	 -6.788428 	 -5.344461 	 4.233360 
H 	 -2.527959 	 5.844795 	 -1.866884 
H 	 -1.026551 	 5.356803 	 -1.521734 
H 	 -7.579497 	 -6.375317 	 -1.988979 
H 	 -7.314296 	 -5.296754 	 -3.045161 
H 	 6.826063 	 6.144246 	 -0.729825 
H 	 -7.439174 	 7.286729 	 0.160365 
H 	 6.028006 	 1.078457 	 -0.432250 
H 	 5.522222 	 0.455000 	 0.879386 
H 	 3.065972 	 -2.813024 	 7.131103 
H 	 3.611611 	 -4.205820 	 6.606039 
H 	 6.938833 	 -0.149045 	 5.581020 
H 	 5.997530 	 -0.924736 	 6.630560 
H 	 -4.180917 	 -5.336643 	 -2.081132 
H 	 -5.525243 	 -4.919806 	 -1.418682 
H 	 2.371822 	 -1.990547 	 -0.733338 
H 	 2.826336 	 -2.010285 	 -2.256919 
H 	 1.493452 	 -5.768671 	 -1.392157 
H 	 1.654182 	 -6.984529 	 -0.398302 
H 	 2.608568 	 0.761134 	 6.767986 
H 	 4.013196 	 0.758161 	 -7.469531 
H 	 4.381340 	 -5.893039 	 -7.350645 
H 	 3.734850 	 -6.791705 	 6.487576 
H 	 -0.953180 	 0.737186 	 6.719183 
H 	 -2.172982 	 1.690370 	 6.790579 
H 	 -2.157774 	 -5.481431 	 -1.392674 
H 	 -1.228894 	 -6.606236 	 -1.845411 
H 	 2.349958 	 4.183426 	 -3.751566 
H 	 2.930014 	 5.634860 	 -3.487574 
H 	 0.761869 	 -5.265740 	 -5.853880 
H 	 1.446840 	 -3.853858 	 -5.506441 
H 	 -4.528259 	 -2.518831 	 2.376296 
H 	 -3.204593 	 -2.749001 	 3.059930 
H 	 1.050780 	 2.629575 	 1.960792 
H 	 -0.239736 	 2.266765 	 2.713604 
H 	 6.958261 	 5.917341 	 4.376443 
H 	 6.728091 	 6.347235 	 5.794873 
H 	 1.568313 	 3.391769 	 5.624469 
H 	 0.525251 	 3.628070 	 6.705533 
H 	 1.710766 	 5.985765 	 5.522041 
H 	 0.468320 	 5.650857 	 4.898557 
H 	 -6.722100 	 1.265850 	 -6.250845 
H 	 7.198399 	 2.363931 	 -6.825499 
H 	 -6.194528 	 3.593030 	 -2.489841 
H 	 -6.366919 	 4.389136 	 -1.141707 
H 	 -2.147938 	 -2.777930 	 -7.262488 
H 	 -2.721998 	 -3.867882 	 -6.231674 
H 	 4.177215 	 5.817255 	 -7.443853 
H 	 4.074845 	 5.062235 	 6.093523 
H 	 2.437953 	 -0.077997 	 -3.424121 
H 	 3.698497 	 -0.796412 	 -4.009247 
H 	 -3.553183 	 1.194090 	 0.867422 
H 	 -4.556259 	 1.837894 	 1.931493 
H 	 0.820632 	 0.076730 	 5.670894 
H 	 0.799301 	 -0.723415 	 6.977046 
H 	 1.624833 	 7.662586 	 2.501545 
H 	 2.126308 	 -7.020856 	 3.849583 
H 	 -1.869818 	 2.848858 	 3.758098 
H 	 -0.556467 	 3.271971 	 4.413548 
H 	 -3.974339 	 0.502967 	 -6.075853 
H 	 -4.803332 	 -0.632701 	 -6.705901 
H 	 6.342435 	 -4.495659 	 4.734408 
H 	 6.202982 	 -6.153496 	 4.782663 
H 	 -5.585258 	 -0.735948 	 -3.471407 
H 	 -5.737927 	 -0.577821 	 -4.904009 
H 	 -5.191309 	 -3.799239 	 -4.782678 
H 	 -5.168441 	 -5.243832 	 -4.169330 
H 	 -3.995442 	 -0.122994 	 -1.669654 
H 	 -4.845120 	 -0.826840 	 -0.680300 
H 	 5.233342 	 4.854589 	 -5.169144 
H 	 3.868895 	 4.212128 	 -5.500218 
H 	 -6.906094 	 -2.848149 	 -6.197274 
H 	 -5.769554 	 -2.938737 	 -7.240184 
H 	 -6.505108 	 4.147782 	 4.226542 
H 	 -5.733145 	 4.441476 	 5.595583 
H 	 1.773015 	 5.541688 	 1.273386 
H 	 0.328099 	 6.269997 	 1.495803 
H 	 -2.284517 	 -2.084392 	 -3.774587 
H 	 -2.683749 	 -1.930656 	 -5.225112 
H 	 -5.499833 	 5.185892 	 -6.888705 
H 	 -4.875877 	 6.140885 	 7.156642 
H 	 6.574069 	 -4.700142 	 -7.423061 
H 	 5.775363 	 -4.274341 	 -6.061311 
H 	 -5.281577 	 -3.337949 	 5.396719 
H 	 -6.402847 	 -2.433574 	 4.723382 
H 	 6.151548 	 0.341257 	 -6.370748 
H 	 5.529424 	 -1.074930 	 -6.023248 
H 	 1.241339 	 -0.994200 	 1.074970 
H 	 1.985396 	 0.303915 	 0.354549 
H 	 2.903857 	 -2.651831 	 3.537630 
H 	 3.408952 	 -2.255712 	 5.003007 
H 	 2.445702 	 4.337316 	 3.559430 
H 	 3.451037 	 4.094632 	 2.425508 
H 	 1.948337 	 -5.665735 	 6.550937 
H 	 1.706479 	 -5.542258 	 5.036698 
H 	 3.564576 	 2.793427 	 5.937832 
H 	 4.039191 	 3.088910 	 4.523096 
H 	 0.907094 	 -1.493484 	 -6.139918 
H 	 2.054208 	 -1.586813 	 -5.082951 
H 	 6.080972 	 2.098943 	 -4.310695 
H 	 2.213052 	 1.804518 	 -1.552040 
H 	 -0.977028 	 -5.789980 	 5.208260 
H 	 -1.741916 	 -7.114775 	 5.513838 
H 	 -4.867528 	 -5.228748 	 7.082382 
H 	 -5.997918 	 -5.730341 	 6.153250 
H 	 -6.635119 	 1.104107 	 3.233474 
H 	 -7.552996 	 1.413083 	 1.903166 
H 	 3.977145 	 -6.933027 	 -2.973109 
H 	 3.810093 	 -6.788628 	 -4.446716 
H 	 3.151471 	 2.413011 	 -0.374235 
O 	 -2.589567 	 7.691432 	 -4.461589 
O 	 -5.701958 	 3.980920 	 0.347313 
O 	 -0.942130 	 6.860732 	 2.429535 
O 	 -4.541241 	 -7.087355 	 -6.356868 
O 	 -1.627736 	 5.944027 	 5.365744 
O 	 -3.619005 	 5.335180 	 3.387819 
O 	 0.733943 	 3.758081 	 -6.053874 
O 	 -1.649236 	 -0.878082 	 3.322484 
O 	 0.596996 	 5.040660 	 -1.323929 
O 	 -0.331591 	 -3.389747 	 4.329119 
O 	 -6.991229 	 -6.321862 	 -5.031266 
O 	 1.041022 	 -0.110755 	 4.019157 
O 	 6.621736 	 -2.902568 	 4.102678 
O 	 -3.558111 	 -0.478787 	 5.500643 
O 	 4.441356 	 -7.019852 	 -0.805285 
O 	 -3.628124 	 -6.887208 	 3.519136 
O 	 7.188861 	 4.998238 	 2.717558 
O 	 -1.110690 	 2.141291 	 -0.491011 
O 	 1.722205 	 1.329336 	 -3.274631 
O 	 4.974112 	 0.443194 	 -2.014858 
O 	 2.311951 	 -4.985595 	 -2.917074 
O 	 6.202949 	 -2.254096 	 -2.003154 
O 	 -3.321183 	 4.771337 	 -4.812687 
O 	 -0.963068 	 -5.968543 	 -6.472036 
O 	 6.128159 	 3.584672 	 7.021146 
O 	 5.163504 	 -6.369968 	 2.956842 
O 	 2.410544 	 -3.851104 	 2.323656 
O 	 5.042435 	 -4.696260 	 -3.633451 
O 	 -2.597187 	 -3.311503 	 0.055527 
O 	 -3.523924 	 1.822993 	 -2.120231 
O 	 -6.665323 	 7.347800 	 1.854993 
O 	 -3.205415 	 2.310391 	 4.583560 
O 	 -4.443119 	 6.596815 	 -2.290314 
O 	 -2.282576 	 -0.415429 	 0.585364 
O 	 -2.187257 	 3.912257 	 -7.367875 
O 	 -6.164057 	 4.500962 	 -5.241823 
O 	 -1.168616 	 3.252914 	 -3.615579 
O 	 5.343061 	 4.565307 	 -1.428691 
O 	 5.167025 	 1.555282 	 3.920068 
O 	 -5.739010 	 -1.125519 	 1.390615 
O 	 4.045705 	 -4.129023 	 0.083703 
O 	 -6.557106 	 1.082390 	 5.418393 
O 	 -0.314412 	 -2.540469 	 6.929406 
O 	 -4.099312 	 7.590092 	 0.566633 
O 	 4.736429 	 -0.664257 	 2.087573 
O 	 6.433149 	 6.016007 	 -3.957394 
O 	 -0.848634 	 -5.288083 	 0.932413 
O 	 0.161280 	 -2.544964 	 1.271693 
O 	 3.066086 	 2.605299 	 -4.945168 
O 	 -0.151107 	 -0.032910 	 -5.150243 
O 	 0.881549 	 6.429942 	 -6.685675 
O 	 6.857257 	 -3.202468 	 0.770575 
O 	 -5.846990 	 2.130194 	 -3.601922 
O 	 6.362604 	 -2.296857 	 -4.877072 
O 	 4.916952 	 3.879526 	 1.074042 
O 	 -6.129469 	 -5.301009 	 3.523763 
O 	 -2.002761 	 5.304049 	 -1.264931 
O 	 -7.585779 	 -5.418393 	 -2.126296 
O 	 7.135078 	 7.064132 	 -0.731210 
O 	 5.979630 	 1.226409 	 0.560759 
O 	 3.681668 	 -3.246889 	 6.543857 
O 	 6.229238 	 -0.880646 	 5.685271 
O 	 -4.571729 	 -4.981913 	 -1.247163 
O 	 2.563651 	 -2.613155 	 -1.485789 
O 	 0.985282 	 -6.414955 	 -0.860498 
O 	 3.353170 	 1.327169 	 7.015057 
O 	 3.508848 	 -6.307965 	 7.324611 
O 	 -1.867670 	 0.806756 	 7.093252 
O 	 -1.832980 	 -5.916251 	 -2.191356 
O 	 2.575716 	 4.841727 	 -3.092277 
O 	 1.615710 	 -4.858157 	 -5.505173 
O 	 -3.790036 	 -3.194090 	 2.447226 
O 	 0.421365 	 1.905958 	 2.005138 
O 	 7.017849 	 6.685541 	 4.960725 
O 	 0.654613 	 3.667541 	 5.722762 
O 	 1.159114 	 6.363742 	 4.812021 
O 	 7.265044 	 1.687067 	 -6.141239 
O 	 -6.570020 	 4.437796 	 -2.088826 
O 	 -2.901285 	 -3.041369 	 -6.684571 
O 	 4.161659 	 5.966771 	 6.479158 
O 	 2.789764 	 -1.000623 	 -3.717496 
O 	 -4.037813 	 1.998306 	 1.142707 
O 	 0.859728 	 0.235156 	 6.690421 
O 	 1.902474 	 -6.496110 	 3.061698 
O 	 -1.064484 	 3.407430 	 3.570083 
O 	 -4.848103 	 0.315243 	 -6.503497 
O 	 6.630758 	 -5.382862 	 5.161401 
O 	 -6.322826 	 -0.671683 	 -4.133243 
O 	 -4.757581 	 -4.359495 	 -4.127329 
O 	 -4.669363 	 -0.837168 	 -1.663583 
O 	 4.560845 	 4.860604 	 -5.846067 
O 	 -5.989157 	 -2.623880 	 -6.322548 
O 	 -5.754484 	 3.886699 	 4.802029 
O 	 1.291444 	 6.352274 	 1.124549 
O 	 -2.389840 	 -1.358580 	 -4.449643 
O 	 -5.169280 	 5.208405 	 7.087560 
O 	 6.140561 	 -5.016577 	 -6.585533 
O 	 -5.493433 	 -2.411971 	 5.069009 
O 	 5.478169 	 -0.311167 	 -6.660800 
O 	 2.050591 	 -0.669900 	 0.678262 
O 	 3.135614 	 -1.873875 	 4.120449 
O 	 2.475609 	 4.187016 	 2.600375 
O 	 1.254919 	 -5.392496 	 5.891048 
O 	 3.537247 	 3.495735 	 5.265707 
O 	 1.587285 	 -2.135259 	 -5.751081 
O 	 5.442959 	 2.475937 	 -3.669974 
O 	 -1.849686 	 -6.111460 	 5.465811 
O 	 -5.501721 	 -4.943123 	 6.382451 
O 	 -6.586065 	 1.338802 	 2.241926 
O 	 3.962696 	 7.389960 	 -3.825667 
O 	 2.780798 	 1.612506 	 -0.741636 
K 	 -2.412685 	 4.383629 	 1.080176 
