333
conformation = 46
H 	 -2.633894 	 6.708234 	 -4.469376 
H 	 -2.703272 	 -6.949102 	 -3.692643 
H 	 -6.210281 	 3.712472 	 1.025998 
H 	 -4.982686 	 3.255288 	 0.107249 
H 	 -0.896582 	 6.696045 	 2.954157 
H 	 -1.072886 	 -7.106470 	 1.894896 
H 	 -5.375380 	 -6.994533 	 -6.073370 
H 	 -3.862444 	 7.579591 	 -6.104316 
H 	 -1.745692 	 5.380540 	 6.030254 
H 	 -2.228225 	 5.427657 	 4.590059 
H 	 -4.419779 	 4.849024 	 3.534265 
H 	 -3.871743 	 6.257500 	 3.268913 
H 	 1.436899 	 3.195800 	 -5.680860 
H 	 0.837279 	 4.466688 	 -6.206934 
H 	 -2.252705 	 -0.911791 	 3.931904 
H 	 -0.695178 	 -0.797411 	 3.390562 
H 	 1.220513 	 5.023064 	 -2.205785 
H 	 0.817426 	 5.546737 	 -0.783598 
H 	 -0.752821 	 -2.592091 	 3.527982 
H 	 0.502188 	 -3.543390 	 3.790521 
H 	 -7.646328 	 7.563603 	 -4.923086 
H 	 7.221942 	 -6.062236 	 -5.757025 
H 	 1.861222 	 -0.767297 	 3.772355 
H 	 0.984792 	 0.524930 	 3.117813 
H 	 6.408094 	 -2.861442 	 2.979251 
H 	 6.427659 	 -2.214330 	 4.392830 
H 	 -4.163299 	 -1.079508 	 5.595930 
H 	 -2.852768 	 -0.071906 	 5.857972 
H 	 5.271353 	 -7.253777 	 -1.114561 
H 	 4.339124 	 -6.092972 	 -0.798994 
H 	 -4.468950 	 -6.353732 	 3.595093 
H 	 -2.947096 	 -6.420122 	 3.774669 
H 	 -7.382178 	 5.691537 	 2.199248 
H 	 6.354846 	 4.644788 	 2.068326 
H 	 -0.300563 	 2.329065 	 -0.185625 
H 	 -1.119154 	 1.167523 	 -0.653425 
H 	 2.188022 	 1.734800 	 -4.094509 
H 	 0.864146 	 1.008930 	 -3.617998 
H 	 4.294313 	 0.683387 	 -1.796749 
H 	 5.398562 	 0.922180 	 -2.856887 
H 	 1.819547 	 -5.162738 	 -3.872865 
H 	 1.929347 	 -4.283846 	 -2.562239 
H 	 5.687546 	 -1.506505 	 -2.141278 
H 	 5.601920 	 -3.016927 	 -2.294003 
H 	 -2.901493 	 4.008971 	 -4.371356 
H 	 -4.227843 	 4.596690 	 -4.905810 
H 	 -1.473145 	 -6.176441 	 -7.344621 
H 	 -1.477719 	 -6.486133 	 -5.814819 
H 	 5.657516 	 3.294189 	 5.886942 
H 	 5.567675 	 3.846292 	 7.232482 
H 	 5.007015 	 7.490210 	 3.220837 
H 	 4.194118 	 -6.372805 	 2.362300 
H 	 3.156182 	 -3.936207 	 1.408539 
H 	 2.315324 	 -4.868913 	 2.293626 
H 	 5.546292 	 -5.170375 	 -3.030486 
H 	 4.025876 	 -4.855568 	 -3.471628 
H 	 -3.433170 	 -3.653874 	 -0.711881 
H 	 -3.036835 	 -3.608640 	 0.746377 
H 	 -2.769713 	 1.646986 	 -3.019480 
H 	 -3.400203 	 2.415845 	 -1.821045 
H 	 -6.523735 	 -6.863460 	 2.263365 
H 	 -5.620260 	 7.415143 	 1.287680 
H 	 -3.489180 	 1.323408 	 4.683473 
H 	 -3.966849 	 2.823940 	 4.715827 
H 	 -4.569184 	 6.392052 	 -1.509547 
H 	 -5.274054 	 5.623436 	 -2.636283 
H 	 -2.841978 	 -1.259318 	 -0.151738 
H 	 -2.085441 	 -0.879893 	 1.256894 
H 	 -1.200850 	 3.629707 	 -7.199696 
H 	 -2.533506 	 4.177792 	 -6.750402 
H 	 -6.203322 	 3.588798 	 -4.914607 
H 	 -6.980709 	 4.951637 	 -5.143030 
H 	 -0.596020 	 2.888279 	 -3.073705 
H 	 -0.553962 	 3.479523 	 -4.562485 
H 	 4.582968 	 4.757334 	 -2.060086 
H 	 5.646146 	 3.776155 	 -2.271523 
H 	 5.299468 	 0.737720 	 4.395672 
H 	 4.879180 	 0.974630 	 2.967095 
H 	 -6.086670 	 -0.573882 	 1.718131 
H 	 -6.704703 	 -1.850917 	 1.047719 
H 	 3.965893 	 -3.584568 	 -0.572918 
H 	 5.136762 	 -4.132540 	 0.329233 
H 	 -6.284835 	 1.749835 	 5.235906 
H 	 -5.633961 	 0.402236 	 5.505690 
H 	 -0.281994 	 -3.087271 	 5.768693 
H 	 0.078672 	 -3.562390 	 7.243458 
H 	 -3.604517 	 -7.079637 	 1.321465 
H 	 -4.095828 	 -6.485339 	 -0.081122 
H 	 4.314215 	 -1.043373 	 2.689589 
H 	 3.714409 	 -0.725832 	 1.352366 
H 	 6.708007 	 5.455912 	 -3.374478 
H 	 5.645310 	 6.410298 	 -4.111995 
H 	 -1.485257 	 -4.819700 	 0.252292 
H 	 -0.093968 	 -5.668202 	 0.292550 
H 	 0.888673 	 -3.370553 	 1.181006 
H 	 -0.523101 	 -3.022022 	 0.767812 
H 	 4.614083 	 2.356063 	 -4.491117 
H 	 3.056446 	 2.129165 	 -6.001457 
H 	 -1.021722 	 -0.569970 	 -5.087036 
H 	 -0.219670 	 0.540544 	 -5.981303 
H 	 1.598847 	 7.008997 	 -7.011691 
H 	 0.062809 	 7.067149 	 -7.077782 
H 	 -7.497075 	 -4.122468 	 0.595841 
H 	 6.844494 	 -2.872054 	 -0.381516 
H 	 -6.292583 	 1.056690 	 -4.009221 
H 	 -5.175309 	 1.752390 	 -3.190772 
H 	 7.197561 	 -1.895959 	 -4.521326 
H 	 6.019727 	 -3.075967 	 -4.477474 
H 	 5.422042 	 2.809658 	 0.785693 
H 	 5.164829 	 4.276382 	 0.153005 
H 	 -5.755935 	 -4.597696 	 3.136663 
H 	 -6.859572 	 -5.450353 	 3.911108 
H 	 -2.586130 	 5.892030 	 -1.956640 
H 	 -1.191143 	 5.135659 	 -1.732436 
H 	 -7.594909 	 -6.465781 	 -1.977259 
H 	 -7.210186 	 -5.493214 	 -3.142432 
H 	 6.911080 	 6.078598 	 -1.150667 
H 	 -7.474591 	 7.075688 	 0.019457 
H 	 5.844339 	 0.854539 	 -0.490191 
H 	 5.610425 	 0.549098 	 1.016931 
H 	 3.437569 	 -2.759420 	 7.245286 
H 	 3.257135 	 -4.098467 	 6.331880 
H 	 6.925263 	 -0.324736 	 5.505254 
H 	 5.946776 	 -0.940017 	 6.484057 
H 	 -4.517089 	 -5.072398 	 -2.283109 
H 	 -5.563534 	 -5.168466 	 -1.085446 
H 	 2.015429 	 -2.063121 	 -0.955656 
H 	 2.444680 	 -2.076737 	 -2.453024 
H 	 1.584445 	 -6.618958 	 -1.639954 
H 	 1.547984 	 -7.161533 	 -0.214207 
H 	 2.520310 	 0.765324 	 6.887217 
H 	 4.001306 	 0.364480 	 7.000046 
H 	 4.179665 	 -5.989887 	 -7.275654 
H 	 3.768174 	 7.547143 	 6.833164 
H 	 -0.972998 	 0.684492 	 6.835502 
H 	 -2.102405 	 1.873050 	 6.830797 
H 	 -2.114364 	 -5.472074 	 -1.558112 
H 	 -1.023434 	 -6.521665 	 -1.916511 
H 	 2.802585 	 3.931392 	 -3.927873 
H 	 2.861534 	 5.545145 	 -3.854344 
H 	 0.854698 	 -5.404397 	 -5.994762 
H 	 1.627177 	 -3.991056 	 -5.900160 
H 	 -4.416289 	 -2.492353 	 2.154644 
H 	 -3.112534 	 -2.896141 	 2.755981 
H 	 1.409636 	 2.237000 	 1.965999 
H 	 -0.071919 	 2.346030 	 2.439330 
H 	 6.919177 	 5.808638 	 4.256830 
H 	 6.476616 	 6.418805 	 5.664188 
H 	 1.639334 	 3.552885 	 5.469324 
H 	 0.493995 	 3.745280 	 6.517444 
H 	 1.606660 	 6.028068 	 5.475752 
H 	 0.254890 	 5.935707 	 4.950304 
H 	 -6.709563 	 1.322973 	 -6.587776 
H 	 6.962383 	 2.013124 	 -7.237301 
H 	 -6.785110 	 3.689754 	 -2.769291 
H 	 -6.287999 	 4.078924 	 -1.321806 
H 	 -2.218460 	 -3.234901 	 -7.378115 
H 	 -2.986194 	 -3.890012 	 -6.133926 
H 	 4.068788 	 5.419832 	 7.103952 
H 	 3.922186 	 5.215325 	 5.632229 
H 	 2.360108 	 -0.189368 	 -3.695668 
H 	 3.778798 	 -0.787255 	 -3.676770 
H 	 -3.458940 	 0.971863 	 0.520348 
H 	 -4.625726 	 1.550326 	 1.493201 
H 	 0.900254 	 0.078240 	 5.405984 
H 	 0.520960 	 -0.821413 	 6.548966 
H 	 1.977837 	 7.608020 	 2.097082 
H 	 1.443938 	 -7.273895 	 3.573482 
H 	 -1.833205 	 3.144124 	 3.862571 
H 	 -0.340562 	 3.606149 	 4.120255 
H 	 -3.842263 	 0.546421 	 -6.916699 
H 	 -4.795036 	 -0.662631 	 -6.852031 
H 	 6.513340 	 -4.484582 	 4.730681 
H 	 6.172265 	 -6.059040 	 4.668366 
H 	 -5.703560 	 -1.037465 	 -3.387240 
H 	 -5.340387 	 -0.559350 	 -4.681035 
H 	 -5.263739 	 -3.603938 	 -4.974036 
H 	 -5.023517 	 -5.159546 	 -4.729353 
H 	 -4.412205 	 -0.055628 	 -1.859249 
H 	 -5.377669 	 -0.909508 	 -1.137260 
H 	 5.346669 	 5.072757 	 -5.512195 
H 	 4.250450 	 3.889527 	 -5.544335 
H 	 -7.101803 	 -2.504076 	 -6.237890 
H 	 -5.875001 	 -3.127461 	 -7.074644 
H 	 -6.323765 	 4.193577 	 4.107044 
H 	 -5.615461 	 4.463099 	 5.521806 
H 	 1.781562 	 5.489408 	 1.490279 
H 	 0.634293 	 6.631574 	 1.186766 
H 	 -2.619283 	 -2.186819 	 -3.966439 
H 	 -2.629047 	 -1.794308 	 -5.431778 
H 	 -5.662442 	 4.752406 	 -7.233139 
H 	 -5.184882 	 6.100735 	 7.241173 
H 	 6.274335 	 -5.020564 	 7.091486 
H 	 5.829307 	 -4.157146 	 -6.567817 
H 	 -5.398413 	 -3.244739 	 5.460129 
H 	 -6.345298 	 -2.456261 	 4.528887 
H 	 6.135277 	 0.243878 	 -6.723739 
H 	 5.777133 	 -1.194123 	 -6.165285 
H 	 1.100243 	 -1.302148 	 0.654744 
H 	 1.894671 	 0.051495 	 0.119965 
H 	 2.969648 	 -2.695457 	 3.383428 
H 	 3.357486 	 -2.410241 	 4.882780 
H 	 2.589030 	 4.405955 	 3.458764 
H 	 3.343548 	 4.043606 	 2.245913 
H 	 2.092189 	 -5.924341 	 6.409058 
H 	 1.622149 	 -5.510632 	 5.018612 
H 	 3.405436 	 2.589432 	 5.837890 
H 	 3.788097 	 2.781047 	 4.350694 
H 	 0.900739 	 -1.765365 	 -5.984200 
H 	 2.139579 	 -1.988231 	 -5.172575 
H 	 6.162218 	 2.675466 	 -4.761319 
H 	 2.171380 	 1.627554 	 -1.644831 
H 	 -1.033377 	 -5.647024 	 5.180651 
H 	 -1.509988 	 -7.184232 	 5.271013 
H 	 -5.149787 	 -5.908518 	 6.838721 
H 	 -6.333322 	 -5.372758 	 5.866298 
H 	 -7.116323 	 1.254870 	 2.855986 
H 	 -7.259608 	 1.240733 	 1.300055 
H 	 3.901619 	 -7.038216 	 -3.254070 
H 	 3.903887 	 -6.731426 	 -4.652448 
H 	 2.818868 	 2.432808 	 -0.404122 
O 	 -2.597345 	 -7.228221 	 -4.649876 
O 	 -5.654946 	 3.966649 	 0.234914 
O 	 -0.823953 	 6.821357 	 2.001006 
O 	 -4.646666 	 -7.246786 	 -6.662816 
O 	 -1.724469 	 5.960339 	 5.230305 
O 	 -3.637338 	 5.280052 	 3.200785 
O 	 0.659054 	 3.498985 	 -6.193473 
O 	 -1.620941 	 -1.036013 	 3.166746 
O 	 0.557108 	 4.942025 	 -1.487010 
O 	 -0.404315 	 -3.365835 	 4.050082 
O 	 -7.071166 	 -6.599458 	 -5.204018 
O 	 1.039469 	 -0.235369 	 3.786037 
O 	 6.710829 	 -2.995873 	 3.867790 
O 	 -3.554495 	 -0.384473 	 5.215747 
O 	 4.330012 	 -6.996332 	 -1.159881 
O 	 -3.699852 	 -6.894134 	 3.378343 
O 	 7.195879 	 4.855485 	 2.594503 
O 	 -1.067826 	 2.130941 	 -0.733553 
O 	 1.734484 	 1.182036 	 -3.301267 
O 	 5.167874 	 0.361856 	 -2.124488 
O 	 2.175561 	 -5.185766 	 -2.921474 
O 	 6.184594 	 -2.339845 	 -2.023734 
O 	 -3.251665 	 4.672101 	 -4.924641 
O 	 -0.924449 	 -6.127134 	 -6.540940 
O 	 6.227074 	 3.471805 	 6.664250 
O 	 5.065103 	 -6.511239 	 2.769332 
O 	 2.412733 	 -3.876576 	 2.111097 
O 	 4.961389 	 -4.923858 	 -3.818410 
O 	 -2.647216 	 -3.552177 	 -0.131145 
O 	 -3.601894 	 1.792229 	 -2.527318 
O 	 -6.544264 	 7.278291 	 1.693142 
O 	 -3.195957 	 2.212905 	 4.430793 
O 	 -4.670665 	 6.387488 	 -2.485085 
O 	 -2.350714 	 -0.575616 	 0.326563 
O 	 -2.056862 	 3.913534 	 -7.615378 
O 	 -6.156085 	 4.452659 	 -5.395618 
O 	 -1.162333 	 3.213944 	 -3.822251 
O 	 5.497827 	 4.590732 	 -1.766298 
O 	 5.078511 	 1.526970 	 3.761953 
O 	 -5.845485 	 -1.394171 	 1.200752 
O 	 4.211799 	 -4.323851 	 -0.018637 
O 	 -6.498190 	 0.821163 	 5.263250 
O 	 -0.316151 	 -2.822595 	 6.771220 
O 	 -4.046881 	 7.620362 	 0.480043 
O 	 4.585139 	 -0.693555 	 1.786198 
O 	 6.458909 	 5.875490 	 -4.234001 
O 	 -0.871834 	 -5.327115 	 0.875932 
O 	 0.248855 	 -2.591942 	 1.130008 
O 	 3.005238 	 2.502375 	 -5.108322 
O 	 -0.109117 	 -0.114350 	 -5.279152 
O 	 0.817724 	 6.430277 	 -6.932604 
O 	 6.915295 	 -3.276713 	 0.522997 
O 	 -5.924608 	 1.942580 	 -3.799331 
O 	 6.458574 	 -2.381215 	 -5.058200 
O 	 4.998804 	 3.694724 	 0.971197 
O 	 -6.015986 	 -5.508059 	 3.303236 
O 	 -2.076749 	 5.334522 	 -1.354532 
O 	 7.146868 	 -5.525466 	 -2.305971 
O 	 7.137881 	 7.019962 	 -0.957271 
O 	 6.091950 	 1.197909 	 0.396608 
O 	 3.732671 	 -3.249678 	 6.436428 
O 	 6.210506 	 -0.960227 	 5.486870 
O 	 -4.601997 	 -5.148527 	 -1.326169 
O 	 2.563384 	 -2.586395 	 -1.616637 
O 	 1.025569 	 -6.612375 	 -0.844384 
O 	 3.425112 	 1.171526 	 6.853667 
O 	 3.501853 	 -6.448955 	 7.088020 
O 	 -1.938616 	 0.910429 	 6.969016 
O 	 -1.785634 	 -6.050814 	 -2.304440 
O 	 2.705803 	 4.717468 	 -3.310438 
O 	 1.676838 	 -4.967157 	 -5.742054 
O 	 -3.881685 	 -3.289987 	 2.218523 
O 	 0.532122 	 1.768592 	 1.883584 
O 	 6.902008 	 6.662838 	 4.785474 
O 	 0.642708 	 3.627369 	 5.551373 
O 	 1.139296 	 6.215894 	 4.638283 
O 	 -7.620129 	 1.503440 	 -6.430726 
O 	 -6.548487 	 4.422399 	 -2.191970 
O 	 -3.040605 	 -3.129507 	 -6.809227 
O 	 4.090331 	 5.942308 	 6.265105 
O 	 2.870217 	 -1.037596 	 -3.939679 
O 	 -4.008893 	 1.764574 	 0.760751 
O 	 0.760600 	 0.105874 	 6.386562 
O 	 1.889123 	 -6.667853 	 2.906110 
O 	 -0.993638 	 3.319959 	 3.380615 
O 	 -4.762590 	 0.292588 	 -6.621174 
O 	 6.715083 	 -5.364541 	 5.099880 
O 	 -6.191184 	 -0.747396 	 -4.207669 
O 	 -4.881769 	 -4.269659 	 -4.337268 
O 	 -4.755248 	 -0.983688 	 -1.869359 
O 	 4.576935 	 4.685643 	 -6.040838 
O 	 -6.115950 	 -2.470431 	 -6.402383 
O 	 -5.648131 	 3.830435 	 4.707925 
O 	 1.479422 	 6.138917 	 0.775871 
O 	 -2.346669 	 -1.480007 	 -4.558090 
O 	 -5.236291 	 5.186509 	 6.879298 
O 	 6.008725 	 -5.086843 	 -6.871350 
O 	 -5.442279 	 -2.441432 	 4.929705 
O 	 5.518787 	 -0.531204 	 -6.836862 
O 	 1.972488 	 -0.804356 	 0.487729 
O 	 3.254377 	 -1.994846 	 3.988330 
O 	 2.425273 	 4.114355 	 2.546391 
O 	 1.284556 	 -5.563109 	 5.910031 
O 	 3.492421 	 3.305147 	 5.136269 
O 	 1.682315 	 -2.304334 	 -5.980588 
O 	 5.525438 	 2.423223 	 -4.071573 
O 	 -1.806440 	 -6.256217 	 5.255636 
O 	 -5.475949 	 -5.160262 	 6.302548 
O 	 -6.630647 	 1.245898 	 2.034834 
O 	 4.054158 	 7.386020 	 -4.058806 
O 	 2.640678 	 1.557968 	 -0.785029 
K 	 -2.450467 	 4.247558 	 0.886641 
