333
conformation = 8
H 	 137.940754 	 -593.598084 	 108.837008 
H 	 138.598762 	 -592.271279 	 109.458521 
H 	 -850.504121 	 -596.205539 	 -885.885443 
H 	 -849.557474 	 402.647730 	 113.605085 
H 	 140.338580 	 -593.358879 	 101.506700 
H 	 140.009519 	 -592.651447 	 -884.872669 
H 	 -849.531094 	 -592.602412 	 107.268113 
H 	 137.130882 	 -592.467688 	 107.417160 
H 	 139.115953 	 -595.054199 	 104.308025 
H 	 138.616059 	 -594.658713 	 102.867498 
H 	 136.642245 	 -595.420938 	 102.226747 
H 	 137.147646 	 -594.106161 	 101.639397 
H 	 142.553099 	 402.860890 	 107.176167 
H 	 141.985122 	 -595.712524 	 106.916556 
H 	 138.650966 	 398.886434 	 102.213781 
H 	 140.199854 	 399.098082 	 101.734491 
H 	 142.321523 	 -595.345731 	 111.112470 
H 	 141.883444 	 -594.649125 	 112.390542 
H 	 140.188234 	 396.806875 	 101.898496 
H 	 141.502125 	 395.930080 	 102.156171 
H 	 148.428339 	 -592.600696 	 108.472543 
H 	 148.104799 	 -591.443181 	 107.544599 
H 	 142.654077 	 398.711562 	 102.195413 
H 	 142.091614 	 400.078335 	 101.430286 
H 	 147.407871 	 396.872751 	 101.344240 
H 	 147.206361 	 397.412928 	 102.859823 
H 	 136.820609 	 398.339944 	 103.638179 
H 	 137.833071 	 399.348761 	 104.549224 
H 	 146.350964 	 -592.635491 	 112.521700 
H 	 145.101679 	 -591.656073 	 112.669591 
H 	 -848.706203 	 -592.011826 	 101.790207 
H 	 137.753648 	 -592.049578 	 102.544505 
H 	 148.425516 	 -594.533348 	 -884.656246 
H 	 147.425176 	 -595.826110 	 -884.686779 
H 	 140.572130 	 401.636559 	 113.277394 
H 	 139.233617 	 400.963413 	 112.717446 
H 	 143.216099 	 401.503933 	 109.122035 
H 	 141.812366 	 400.764393 	 109.293448 
H 	 145.089508 	 400.362577 	 111.449702 
H 	 146.180313 	 400.780422 	 110.440895 
H 	 142.803306 	 394.767448 	 109.298858 
H 	 143.132600 	 395.378292 	 110.744180 
H 	 146.485394 	 398.066047 	 111.107175 
H 	 146.629275 	 396.496520 	 110.834896 
H 	 138.113959 	 -596.042678 	 109.060122 
H 	 136.639641 	 -595.618852 	 108.372721 
H 	 139.579953 	 -591.691770 	 105.721380 
H 	 139.417336 	 -591.960034 	 107.267152 
H 	 146.864306 	 403.473451 	 104.322472 
H 	 146.333972 	 403.579572 	 105.784280 
H 	 146.325461 	 -592.795366 	 101.295841 
H 	 145.170252 	 -591.910220 	 100.951805 
H 	 143.961114 	 395.542396 	 -885.342060 
H 	 143.141047 	 394.828837 	 100.718919 
H 	 146.436774 	 -590.773127 	 110.099872 
H 	 145.055577 	 -590.380479 	 109.659329 
H 	 137.822474 	 395.976912 	 112.400925 
H 	 137.728773 	 396.395175 	 113.904529 
H 	 137.953787 	 401.580113 	 110.178267 
H 	 137.674041 	 402.091626 	 111.641148 
H 	 149.265673 	 -592.148228 	 -884.583739 
H 	 -849.894602 	 -593.276288 	 -885.346595 
H 	 137.606078 	 400.938682 	 102.605631 
H 	 136.904872 	 402.327247 	 102.674873 
H 	 -848.922211 	 -593.611497 	 111.675580 
H 	 -849.214875 	 -594.537826 	 110.588562 
H 	 138.674417 	 398.266691 	 113.299331 
H 	 139.031481 	 399.084363 	 -885.443316 
H 	 139.450581 	 403.463178 	 106.382903 
H 	 138.023598 	 -596.194108 	 106.257421 
H 	 -850.480067 	 403.154144 	 108.070513 
H 	 148.927133 	 -595.466597 	 108.208839 
H 	 140.176523 	 402.972921 	 110.377155 
H 	 140.522625 	 403.103400 	 108.880482 
H 	 145.490766 	 -595.854885 	 111.080354 
H 	 146.969984 	 403.593595 	 111.186891 
H 	 145.700688 	 400.845294 	 102.877180 
H 	 145.787072 	 400.473456 	 101.447945 
H 	 -850.041939 	 399.432718 	 -885.417463 
H 	 149.178728 	 398.168330 	 -885.500671 
H 	 144.535564 	 395.991330 	 112.402815 
H 	 145.814910 	 395.861606 	 113.471429 
H 	 149.442106 	 401.677389 	 103.719813 
H 	 -849.895971 	 400.280455 	 103.904984 
H 	 140.481500 	 397.156241 	 104.150962 
H 	 141.079075 	 396.192426 	 105.232798 
H 	 137.306236 	 -592.405516 	 -885.564517 
H 	 136.785158 	 -592.066318 	 113.005769 
H 	 145.633057 	 398.330325 	 101.041546 
H 	 144.758293 	 398.789992 	 -885.165385 
H 	 147.662063 	 -594.601271 	 110.020030 
H 	 146.531627 	 -593.852826 	 109.260447 
H 	 139.275346 	 394.763784 	 113.945853 
H 	 140.556572 	 -590.956982 	 113.204384 
H 	 141.781185 	 396.516370 	 -885.182288 
H 	 140.545471 	 396.418180 	 113.853061 
H 	 145.524961 	 402.112751 	 108.890343 
H 	 144.217355 	 401.635696 	 107.357723 
H 	 140.250583 	 398.973515 	 108.425227 
H 	 140.092409 	 400.071541 	 107.537339 
H 	 142.577342 	 -593.351947 	 106.278604 
H 	 141.118402 	 -593.470395 	 106.784487 
H 	 148.366797 	 395.678894 	 113.378057 
H 	 147.644087 	 397.039364 	 113.145813 
H 	 -850.422652 	 400.846047 	 109.388302 
H 	 -849.118642 	 401.587982 	 109.967398 
H 	 147.986437 	 397.765948 	 108.679690 
H 	 146.913880 	 396.773189 	 108.922431 
H 	 146.131227 	 402.534941 	 -885.854751 
H 	 145.880063 	 403.716707 	 113.229548 
H 	 -849.665691 	 395.030804 	 101.864515 
H 	 149.075206 	 -590.857358 	 102.412692 
H 	 138.439587 	 -594.578922 	 111.221300 
H 	 139.935248 	 -595.039624 	 111.553231 
H 	 148.290195 	 -591.883797 	 111.105396 
H 	 148.543314 	 -590.809954 	 110.033166 
H 	 147.798828 	 -594.266283 	 112.360557 
H 	 148.422834 	 -593.123168 	 113.237193 
H 	 146.989020 	 400.669563 	 112.655081 
H 	 146.481966 	 400.037136 	 113.965567 
H 	 144.011628 	 396.761780 	 105.305464 
H 	 144.567079 	 395.384897 	 104.790771 
H 	 147.897993 	 399.437525 	 103.752996 
H 	 146.958354 	 398.662290 	 104.808297 
H 	 136.773393 	 -590.843276 	 110.999164 
H 	 -849.662191 	 -590.421288 	 111.637344 
H 	 143.337073 	 397.585504 	 112.344524 
H 	 143.782900 	 397.573417 	 110.823694 
H 	 142.447792 	 -591.273515 	 111.696542 
H 	 142.621303 	 -592.499935 	 112.676439 
H 	 143.561657 	 400.352423 	 104.951086 
H 	 144.967649 	 400.353208 	 105.630616 
H 	 145.344923 	 -591.405545 	 105.728457 
H 	 144.697711 	 -592.290962 	 104.674773 
H 	 140.003484 	 400.329610 	 104.895946 
H 	 138.793326 	 401.281038 	 104.968393 
H 	 138.797767 	 -590.991529 	 111.700448 
H 	 139.735580 	 -592.114210 	 111.235817 
H 	 143.314997 	 403.771968 	 109.325941 
H 	 143.889667 	 -594.770462 	 109.600737 
H 	 141.711520 	 -590.767627 	 107.228666 
H 	 142.401433 	 395.733231 	 107.579777 
H 	 -848.676881 	 397.066145 	 -884.547665 
H 	 137.767185 	 396.840969 	 101.257166 
H 	 142.015109 	 402.218582 	 -884.961001 
H 	 140.716413 	 401.856784 	 100.901570 
H 	 147.914514 	 -594.494438 	 102.555599 
H 	 147.685073 	 -594.076502 	 103.978721 
H 	 142.522991 	 402.972576 	 103.798973 
H 	 141.490639 	 403.208482 	 104.896354 
H 	 142.676750 	 -594.417471 	 103.705713 
H 	 141.426758 	 -594.757794 	 103.081446 
H 	 149.130975 	 400.861408 	 106.835281 
H 	 148.161672 	 401.958185 	 106.255435 
H 	 -850.308542 	 403.185520 	 110.593701 
H 	 149.495025 	 -596.022516 	 111.949746 
H 	 138.808388 	 396.828194 	 105.834497 
H 	 138.235288 	 395.706571 	 106.852132 
H 	 145.146487 	 -594.591219 	 105.650611 
H 	 145.022979 	 -595.353365 	 104.269797 
H 	 143.399963 	 399.502215 	 109.656969 
H 	 144.657014 	 398.794228 	 109.060077 
H 	 137.403896 	 400.779055 	 113.959153 
H 	 -848.699718 	 401.427017 	 -884.990615 
H 	 141.791192 	 399.669207 	 103.850666 
H 	 141.769972 	 398.862964 	 105.157594 
H 	 142.578771 	 -592.733508 	 -884.416761 
H 	 143.089334 	 -592.544671 	 102.020996 
H 	 139.084989 	 402.447514 	 101.955994 
H 	 140.395762 	 402.872073 	 102.585900 
H 	 136.991154 	 400.094422 	 107.021948 
H 	 -848.948325 	 398.953061 	 106.370591 
H 	 147.303938 	 395.089675 	 102.914650 
H 	 147.168334 	 -591.663648 	 102.968650 
H 	 -849.729955 	 398.844988 	 109.609162 
H 	 -849.892115 	 399.005424 	 108.169703 
H 	 -849.322864 	 395.793379 	 108.295229 
H 	 -849.316643 	 -590.759544 	 108.906361 
H 	 136.971289 	 399.461701 	 111.412687 
H 	 -848.975634 	 398.751662 	 112.394467 
H 	 146.185027 	 -595.563910 	 107.923760 
H 	 144.830528 	 -596.202551 	 107.561136 
H 	 148.956082 	 396.742518 	 106.879381 
H 	 -849.915077 	 396.637688 	 105.840266 
H 	 149.354733 	 403.736323 	 102.405890 
H 	 -849.877128 	 -595.979086 	 103.771551 
H 	 142.736848 	 -594.870415 	 -885.642361 
H 	 141.304033 	 -594.138108 	 -885.422360 
H 	 138.678721 	 397.510460 	 109.314432 
H 	 138.284299 	 397.639586 	 107.850553 
H 	 -849.642331 	 -595.224883 	 106.200341 
H 	 -849.002950 	 -594.281365 	 105.343233 
H 	 147.535411 	 394.882863 	 105.651989 
H 	 146.735405 	 395.317310 	 107.038199 
H 	 -849.421981 	 396.251634 	 103.571664 
H 	 149.457699 	 397.159880 	 102.904830 
H 	 147.112541 	 399.931115 	 106.718802 
H 	 146.491560 	 398.521307 	 107.057294 
H 	 142.201370 	 398.598895 	 -885.836435 
H 	 142.945623 	 399.887604 	 113.441200 
H 	 143.862300 	 396.931348 	 101.720279 
H 	 144.361928 	 397.338517 	 103.181611 
H 	 143.397315 	 -596.064187 	 101.736429 
H 	 144.421874 	 403.678813 	 -884.498925 
H 	 142.897655 	 -591.168183 	 104.721066 
H 	 142.663427 	 -591.047770 	 103.226181 
H 	 144.520540 	 402.378708 	 104.115173 
H 	 145.009949 	 402.680148 	 102.715822 
H 	 141.864739 	 398.093596 	 106.950491 
H 	 143.008634 	 398.006607 	 108.012306 
H 	 147.024602 	 401.666463 	 108.776130 
H 	 143.176506 	 401.393326 	 111.521721 
H 	 139.985390 	 -591.305658 	 103.388202 
H 	 139.222069 	 -592.624401 	 103.699591 
H 	 -849.008739 	 -590.734222 	 105.261635 
H 	 -850.123100 	 -591.244429 	 104.346709 
H 	 149.221204 	 400.688752 	 101.421148 
H 	 148.311867 	 401.003709 	 -885.002061 
H 	 144.933312 	 -592.460170 	 110.114301 
H 	 144.766639 	 -592.300446 	 108.634746 
H 	 144.111127 	 402.002524 	 112.699433 
O 	 138.371889 	 -592.721375 	 108.621730 
O 	 -849.841258 	 403.568252 	 113.430116 
O 	 140.015377 	 -593.549916 	 -884.481455 
O 	 -848.678323 	 -592.596056 	 106.727649 
O 	 139.334094 	 -594.469164 	 103.548774 
O 	 137.342171 	 -595.076158 	 101.572064 
O 	 141.695738 	 403.351842 	 107.028568 
O 	 139.309905 	 398.712917 	 101.506161 
O 	 141.557952 	 -595.369517 	 111.759310 
O 	 140.630907 	 396.197329 	 102.514162 
O 	 148.871126 	 -591.829250 	 108.053541 
O 	 142.001139 	 399.480174 	 102.203029 
O 	 147.580672 	 396.686914 	 102.286191 
O 	 137.402235 	 399.106559 	 103.684959 
O 	 145.404508 	 -592.532918 	 112.281299 
O 	 137.332656 	 -592.398671 	 101.701395 
O 	 148.148472 	 -595.412611 	 100.898343 
O 	 139.849059 	 401.728299 	 112.593898 
O 	 142.681504 	 400.920095 	 109.804508 
O 	 145.930320 	 400.030932 	 111.067362 
O 	 143.276644 	 -590.493075 	 110.161755 
O 	 147.164457 	 397.334260 	 111.077810 
O 	 137.638299 	 -595.638749 	 108.270106 
O 	 139.996939 	 -591.478645 	 106.609588 
O 	 147.087184 	 403.174618 	 105.208368 
O 	 146.125879 	 -591.879635 	 101.139764 
O 	 143.371850 	 395.735793 	 -884.593073 
O 	 146.003406 	 394.897915 	 109.449648 
O 	 138.364572 	 396.282011 	 113.137352 
O 	 137.440022 	 401.411364 	 110.967242 
O 	 149.193234 	 -593.063126 	 -885.063668 
O 	 137.753885 	 401.898364 	 102.765834 
O 	 -848.578150 	 -593.811223 	 110.793109 
O 	 138.678800 	 399.176803 	 113.670594 
O 	 138.772068 	 403.498897 	 105.717494 
O 	 -850.304045 	 -595.911214 	 107.840303 
O 	 139.790739 	 402.840455 	 109.468440 
O 	 146.300178 	 -595.847724 	 111.656250 
O 	 146.128273 	 401.144188 	 102.103840 
O 	 -849.874891 	 398.467366 	 -885.527076 
O 	 145.003137 	 395.462144 	 113.165971 
O 	 149.303160 	 400.675758 	 103.601340 
O 	 140.646453 	 397.052447 	 105.110725 
O 	 136.860324 	 -592.823018 	 113.647917 
O 	 145.698715 	 398.923562 	 -884.826716 
O 	 147.394014 	 -594.392284 	 109.127040 
O 	 140.111670 	 -590.801135 	 114.013737 
O 	 141.119559 	 397.043281 	 -885.645703 
O 	 144.028845 	 402.195854 	 108.136743 
O 	 140.808577 	 399.556984 	 107.930792 
O 	 141.844288 	 -593.982286 	 106.399005 
O 	 147.815072 	 396.386954 	 113.855881 
O 	 -849.987705 	 401.721190 	 109.481026 
O 	 147.321115 	 397.292632 	 108.204827 
O 	 145.875756 	 403.470972 	 -885.842645 
O 	 -850.270415 	 -590.808601 	 101.707794 
O 	 138.958195 	 -595.108668 	 111.815188 
O 	 148.279116 	 -590.928313 	 110.956979 
O 	 148.095019 	 -593.348253 	 112.353595 
O 	 146.938052 	 400.814955 	 113.642906 
O 	 144.642380 	 396.341614 	 104.726637 
O 	 147.190211 	 398.709704 	 103.869973 
O 	 -848.710583 	 -590.492665 	 111.834521 
O 	 143.525218 	 396.975919 	 111.596874 
O 	 141.944231 	 -591.922665 	 112.217482 
O 	 144.313795 	 400.918438 	 105.197749 
O 	 144.470996 	 -591.818433 	 105.508626 
O 	 139.094469 	 400.392526 	 105.276958 
O 	 139.127252 	 -591.426434 	 110.890538 
O 	 143.534534 	 -595.567645 	 109.991474 
O 	 142.575425 	 -590.368768 	 107.579382 
O 	 137.171145 	 396.395841 	 -884.468335 
O 	 141.380979 	 401.496562 	 -884.913773 
O 	 147.981175 	 -593.725519 	 103.144050 
O 	 141.615567 	 403.255387 	 103.906687 
O 	 142.121442 	 -594.046482 	 102.995352 
O 	 148.226519 	 401.278487 	 106.944849 
O 	 149.288547 	 -595.974152 	 110.990181 
O 	 138.063362 	 396.548562 	 106.395753 
O 	 145.123747 	 -594.444374 	 104.663294 
O 	 143.751228 	 398.588051 	 109.368130 
O 	 136.923658 	 401.590461 	 -885.769810 
O 	 141.821696 	 399.825208 	 104.877057 
O 	 142.865120 	 -592.005173 	 101.244480 
O 	 139.895435 	 402.995210 	 101.753491 
O 	 -848.989813 	 399.902635 	 106.578045 
O 	 147.589581 	 -590.895458 	 103.343347 
O 	 -850.465464 	 398.917857 	 108.949090 
O 	 -848.894226 	 395.225554 	 108.956776 
O 	 -848.806746 	 398.753841 	 111.421256 
O 	 145.520955 	 -595.548455 	 107.237289 
O 	 -850.124661 	 396.960217 	 106.757817 
O 	 -849.896274 	 403.474938 	 102.984385 
O 	 142.247253 	 -594.055363 	 -885.787847 
O 	 138.568942 	 398.231096 	 108.632482 
O 	 -849.307151 	 -595.202715 	 105.270900 
O 	 147.103519 	 -590.527736 	 106.499303 
O 	 -849.634090 	 397.174611 	 103.252361 
O 	 146.436998 	 399.280463 	 106.422089 
O 	 143.014543 	 398.920563 	 113.761360 
O 	 144.094497 	 397.716154 	 102.302636 
O 	 143.437054 	 403.775472 	 100.780125 
O 	 142.214675 	 -590.900858 	 104.070571 
O 	 144.499785 	 403.087062 	 103.448582 
O 	 142.546866 	 397.454878 	 107.330428 
O 	 146.403052 	 402.064873 	 109.418319 
O 	 139.110235 	 -591.621918 	 103.651075 
O 	 -849.641620 	 -590.451023 	 104.564685 
O 	 149.275848 	 400.929016 	 -884.673581 
O 	 144.921586 	 -593.023438 	 109.258998 
O 	 143.744751 	 401.201455 	 112.339241 
K 	 138.548882 	 -596.025630 	 -885.835691 
