333
conformation = 10
H 	 -4.088484 	 -4.857176 	 2.352136 
H 	 -3.454641 	 -3.540218 	 2.964163 
H 	 -7.440455 	 -7.474252 	 -7.289721 
H 	 -6.474945 	 6.281351 	 7.099230 
H 	 -1.701923 	 -4.618299 	 -4.984339 
H 	 -2.041106 	 -3.903847 	 -6.263219 
H 	 -6.464767 	 -3.867629 	 0.776377 
H 	 -4.899558 	 -3.727659 	 0.909971 
H 	 -2.927164 	 -6.315047 	 -2.188215 
H 	 -3.432550 	 -5.923240 	 -3.621622 
H 	 -5.395525 	 -6.686520 	 -4.274411 
H 	 -4.891578 	 -5.365124 	 -4.850350 
H 	 0.502411 	 6.501305 	 0.685480 
H 	 -0.047316 	 -6.978694 	 0.426171 
H 	 -3.393801 	 2.510233 	 -4.279212 
H 	 -1.838293 	 2.752265 	 -4.761018 
H 	 0.269634 	 -6.606671 	 4.614277 
H 	 -0.168208 	 -5.896016 	 5.898450 
H 	 -1.854991 	 0.447365 	 -4.596830 
H 	 -0.537028 	 -0.426610 	 -4.342743 
H 	 6.380020 	 -3.864729 	 1.978560 
H 	 6.057573 	 -2.700217 	 1.052053 
H 	 0.611584 	 2.356516 	 -4.297055 
H 	 0.042886 	 3.718099 	 -5.073615 
H 	 5.358949 	 0.517628 	 -5.159822 
H 	 5.169933 	 1.042114 	 -3.642240 
H 	 -5.223204 	 1.978541 	 -2.851336 
H 	 -4.207747 	 3.004141 	 -1.948003 
H 	 4.313887 	 -3.897606 	 6.017281 
H 	 3.069490 	 -2.920757 	 6.178016 
H 	 -5.649432 	 -3.255735 	 -4.710074 
H 	 -4.290054 	 -3.309275 	 -3.952736 
H 	 6.371584 	 -5.795180 	 -6.059049 
H 	 5.375135 	 -7.090929 	 -6.097258 
H 	 -1.469184 	 5.279940 	 6.774092 
H 	 -2.800824 	 4.599475 	 6.223651 
H 	 1.171578 	 5.144947 	 2.614315 
H 	 -0.233755 	 4.391082 	 2.800744 
H 	 3.044168 	 3.995348 	 4.946785 
H 	 4.137098 	 4.404020 	 3.952555 
H 	 0.764901 	 -1.586632 	 2.798139 
H 	 1.096028 	 -0.980020 	 4.246133 
H 	 4.449903 	 1.697049 	 4.614596 
H 	 4.590449 	 0.130158 	 4.339507 
H 	 -3.931089 	 -7.311645 	 2.579936 
H 	 -5.394563 	 -6.882110 	 1.875772 
H 	 -2.460503 	 -2.964284 	 -0.769295 
H 	 -2.618318 	 -3.220704 	 0.784185 
H 	 4.816550 	 7.108535 	 -2.180107 
H 	 4.291732 	 7.217512 	 -0.721993 
H 	 4.279253 	 -4.052743 	 -5.191609 
H 	 3.124182 	 -3.160760 	 -5.562247 
H 	 1.924106 	 -0.816296 	 -6.744998 
H 	 1.104083 	 -1.531241 	 -5.786170 
H 	 4.385179 	 -2.035060 	 3.607594 
H 	 3.003873 	 -1.638598 	 3.159839 
H 	 -4.217056 	 -0.387071 	 5.896896 
H 	 -4.307032 	 0.034856 	 7.400197 
H 	 -4.085325 	 5.216137 	 3.672533 
H 	 -4.371452 	 5.733003 	 5.139499 
H 	 7.234775 	 -3.411945 	 -5.979620 
H 	 -6.827093 	 -4.526971 	 -6.745820 
H 	 -4.437166 	 4.579914 	 -3.896985 
H 	 -5.129454 	 5.956859 	 -3.813849 
H 	 -5.865383 	 -4.877211 	 5.179325 
H 	 -6.157268 	 -5.802774 	 4.091910 
H 	 -3.388915 	 1.901463 	 6.792800 
H 	 -3.012522 	 2.721512 	 -6.829927 
H 	 -2.582607 	 7.097096 	 -0.114540 
H 	 -4.002051 	 -7.466954 	 -0.235088 
H 	 -7.426014 	 6.772618 	 1.575081 
H 	 6.879557 	 -6.719490 	 1.699303 
H 	 -1.870402 	 6.597161 	 3.870238 
H 	 -1.528239 	 6.750471 	 2.383335 
H 	 3.452905 	 -7.112592 	 4.577459 
H 	 4.924062 	 7.220823 	 4.680620 
H 	 3.652417 	 4.485144 	 -3.620606 
H 	 3.740144 	 4.119927 	 -5.040952 
H 	 -6.972220 	 3.063988 	 -6.823154 
H 	 7.136138 	 1.813147 	 -6.900739 
H 	 2.502613 	 -0.361025 	 5.912047 
H 	 3.782454 	 -0.512875 	 6.973407 
H 	 7.405834 	 5.315956 	 -2.772143 
H 	 -6.831337 	 3.909355 	 -2.585996 
H 	 -1.549918 	 0.791546 	 -2.361006 
H 	 -0.963122 	 -0.183778 	 -1.265522 
H 	 -4.735742 	 -3.660593 	 -6.961312 
H 	 -5.257245 	 -3.334232 	 6.501251 
H 	 3.587608 	 1.980765 	 -5.461980 
H 	 2.712167 	 2.430470 	 -6.559886 
H 	 5.628594 	 -5.860449 	 3.531902 
H 	 4.488887 	 -5.116897 	 2.739734 
H 	 -2.769124 	 -1.592901 	 7.449415 
H 	 -1.494425 	 -2.211506 	 6.700886 
H 	 -0.259050 	 0.145084 	 -6.591917 
H 	 -1.500811 	 0.050858 	 7.362853 
H 	 3.489603 	 5.749707 	 2.392966 
H 	 2.174347 	 5.279744 	 0.854477 
H 	 -1.792879 	 2.600506 	 1.912379 
H 	 -1.946653 	 3.715009 	 1.029377 
H 	 0.531853 	 -4.609996 	 -0.220043 
H 	 -0.926941 	 -4.730062 	 0.273256 
H 	 6.314728 	 -0.687304 	 6.895820 
H 	 5.586346 	 0.676592 	 6.653599 
H 	 -7.376568 	 4.472961 	 2.889058 
H 	 -6.073449 	 5.210476 	 3.470542 
H 	 5.954004 	 1.410533 	 2.181516 
H 	 4.865112 	 0.413437 	 2.411878 
H 	 4.082601 	 6.170743 	 -7.259976 
H 	 3.849677 	 7.365644 	 6.748055 
H 	 -6.598874 	 -1.324256 	 -4.628958 
H 	 7.030373 	 -2.116541 	 -4.081127 
H 	 -3.608880 	 -5.827007 	 4.718350 
H 	 -2.107472 	 -6.314999 	 5.063500 
H 	 6.239304 	 -3.147397 	 4.596255 
H 	 6.504504 	 -2.068835 	 3.540073 
H 	 5.745142 	 -5.527555 	 5.855409 
H 	 6.379626 	 -4.385072 	 6.745599 
H 	 4.947086 	 4.306377 	 6.152984 
H 	 4.441302 	 3.682920 	 7.464620 
H 	 1.985051 	 0.414896 	 -1.183384 
H 	 2.530690 	 -0.977900 	 -1.708448 
H 	 5.857912 	 3.078874 	 -2.733467 
H 	 4.916609 	 2.303184 	 -1.683927 
H 	 -5.261838 	 -2.108723 	 4.504101 
H 	 -6.606164 	 -1.691886 	 5.166552 
H 	 1.290901 	 1.237373 	 5.851896 
H 	 1.745416 	 1.217635 	 4.328314 
H 	 0.412532 	 -2.540751 	 5.193077 
H 	 0.573261 	 -3.756609 	 6.186932 
H 	 1.527647 	 3.989054 	 -1.546501 
H 	 2.932275 	 3.986081 	 -0.884297 
H 	 3.300419 	 -2.665120 	 -0.765411 
H 	 2.653929 	 -3.563785 	 -1.826911 
H 	 -2.034100 	 3.965105 	 -1.595304 
H 	 -3.253903 	 4.918290 	 -1.523908 
H 	 -3.238694 	 -2.253511 	 5.192560 
H 	 -2.309814 	 -3.378316 	 4.739823 
H 	 1.269037 	 7.411346 	 2.833668 
H 	 1.849093 	 -6.036941 	 3.097659 
H 	 -0.319052 	 -2.037820 	 0.731354 
H 	 0.365920 	 -0.625939 	 1.078792 
H 	 -5.609180 	 0.709089 	 -5.938191 
H 	 -4.285514 	 0.478919 	 -5.254557 
H 	 -0.030141 	 5.857495 	 -6.353695 
H 	 -1.320657 	 5.494685 	 -5.600883 
H 	 5.877340 	 -5.754461 	 -3.938045 
H 	 5.647170 	 -5.324566 	 -2.519614 
H 	 0.487392 	 6.619689 	 -2.690018 
H 	 -0.555669 	 6.855989 	 -1.608955 
H 	 0.629846 	 -5.686037 	 -2.792446 
H 	 -0.612601 	 -6.020944 	 -3.415931 
H 	 7.096701 	 4.493769 	 0.334389 
H 	 6.117478 	 5.591851 	 -0.240265 
H 	 -7.275449 	 6.820950 	 4.095392 
H 	 7.451881 	 -7.282665 	 5.443526 
H 	 -3.228858 	 0.449989 	 -0.677254 
H 	 -3.802919 	 -0.639963 	 0.353560 
H 	 3.096295 	 -5.854546 	 -0.858619 
H 	 2.993924 	 -6.609566 	 -2.220964 
H 	 1.357033 	 3.149923 	 3.161113 
H 	 2.617577 	 2.431508 	 2.575987 
H 	 -4.634104 	 4.422010 	 7.452656 
H 	 -5.637179 	 5.065814 	 -6.382994 
H 	 -0.260289 	 3.304650 	 -2.643593 
H 	 -0.281620 	 2.504505 	 -1.337442 
H 	 0.543913 	 -4.009215 	 -5.812942 
H 	 1.045387 	 -3.792936 	 -4.464904 
H 	 -2.950739 	 6.076778 	 -4.556390 
H 	 -1.637387 	 6.499891 	 -3.900939 
H 	 -5.055260 	 3.730887 	 0.509381 
H 	 -5.884252 	 2.595219 	 -0.120667 
H 	 5.261514 	 -1.267739 	 -3.580079 
H 	 5.122061 	 -2.925576 	 -3.531824 
H 	 -6.666178 	 2.491972 	 3.113827 
H 	 -6.818848 	 2.650099 	 1.681225 
H 	 -6.272230 	 -0.571319 	 1.802556 
H 	 -6.249362 	 -2.015912 	 2.415904 
H 	 -5.076363 	 3.104925 	 4.915580 
H 	 -5.926041 	 2.401080 	 5.904933 
H 	 4.152421 	 -6.817213 	 1.416090 
H 	 2.787974 	 -7.459673 	 1.085016 
H 	 6.912706 	 0.379771 	 0.387960 
H 	 -6.850475 	 0.289183 	 -0.654950 
H 	 7.313692 	 7.375702 	 -4.087945 
H 	 -6.814066 	 -7.230325 	 -2.718904 
H 	 0.692094 	 -6.130113 	 -7.041101 
H 	 -0.752822 	 -5.401804 	 -6.818685 
H 	 -3.365437 	 1.143527 	 2.810646 
H 	 -3.764670 	 1.297264 	 1.360122 
H 	 -6.580754 	 -6.485909 	 -0.303471 
H 	 -5.956798 	 -5.530916 	 -1.157845 
H 	 5.493148 	 -1.472223 	 -0.837828 
H 	 4.694442 	 -1.046422 	 0.523923 
H 	 -6.362497 	 -0.110029 	 -2.917768 
H 	 7.415954 	 0.794345 	 -3.591106 
H 	 5.070627 	 3.569177 	 0.214486 
H 	 4.448503 	 2.152989 	 0.561985 
H 	 0.160419 	 2.233719 	 -7.239517 
H 	 0.904476 	 3.531834 	 6.939783 
H 	 1.822936 	 0.576089 	 -4.776857 
H 	 2.328032 	 0.972208 	 -3.311480 
H 	 1.364781 	 -7.334486 	 -4.755057 
H 	 2.370116 	 7.322552 	 -5.888979 
H 	 0.867417 	 -2.437815 	 -1.763551 
H 	 0.625558 	 -2.314339 	 -3.277789 
H 	 2.483656 	 6.021347 	 -2.376655 
H 	 2.958271 	 6.316830 	 -3.791392 
H 	 -0.173826 	 1.734436 	 0.445316 
H 	 0.973287 	 1.641107 	 1.502283 
H 	 5.000051 	 5.326863 	 2.274539 
H 	 1.132131 	 5.032438 	 5.033194 
H 	 -2.057949 	 -2.562060 	 -3.106227 
H 	 -2.822837 	 -3.886855 	 -2.800649 
H 	 -5.948449 	 -2.000828 	 -1.232105 
H 	 -7.078839 	 -2.502422 	 -2.161237 
H 	 7.183681 	 4.332026 	 -5.081014 
H 	 6.265805 	 4.641003 	 -6.411321 
H 	 2.896224 	 -3.705108 	 3.612125 
H 	 2.729173 	 -3.560708 	 2.138518 
H 	 2.070551 	 5.640931 	 6.210999 
O 	 -3.670488 	 -3.980369 	 2.123644 
O 	 -6.782879 	 7.208840 	 6.932547 
O 	 -2.023051 	 -4.811070 	 -5.884952 
O 	 -5.622162 	 -3.859435 	 0.228366 
O 	 -2.708657 	 -5.727774 	 -2.948743 
O 	 -4.699926 	 -6.336621 	 -4.926668 
O 	 -0.346978 	 6.986000 	 0.531360 
O 	 -2.730156 	 2.349838 	 -4.992003 
O 	 -0.483924 	 -6.631142 	 5.261305 
O 	 -1.412512 	 -0.161827 	 -3.985368 
O 	 6.827571 	 -3.093942 	 1.553967 
O 	 -0.039899 	 3.117165 	 -4.295330 
O 	 5.540816 	 0.325352 	 -4.211809 
O 	 -4.639031 	 2.749133 	 -2.813845 
O 	 3.360435 	 -3.791932 	 5.779949 
O 	 -4.709044 	 -3.659288 	 -4.795351 
O 	 6.107941 	 -6.673563 	 -5.596929 
O 	 -2.191611 	 5.369211 	 6.094223 
O 	 0.641285 	 4.557256 	 3.310603 
O 	 3.893192 	 3.671114 	 4.570376 
O 	 1.231030 	 -1.757675 	 3.668160 
O 	 5.122029 	 0.973824 	 4.582080 
O 	 -4.402103 	 -6.900464 	 1.772547 
O 	 -2.043989 	 -2.740624 	 0.113198 
O 	 5.047238 	 6.812592 	 -1.293342 
O 	 4.082583 	 -3.142048 	 -5.357645 
O 	 1.329623 	 -0.623185 	 -5.990831 
O 	 3.961514 	 -1.468341 	 2.951783 
O 	 -3.678107 	 -0.083584 	 6.640760 
O 	 -4.604845 	 5.050912 	 4.465003 
O 	 7.153477 	 -4.324001 	 -6.459494 
O 	 -4.286336 	 5.538311 	 -3.730928 
O 	 -5.524039 	 -5.074986 	 4.294920 
O 	 -3.363497 	 2.812491 	 7.170598 
O 	 -3.268178 	 7.140177 	 -0.782641 
O 	 -7.244977 	 -7.170839 	 1.343411 
O 	 -2.249536 	 6.480834 	 2.969655 
O 	 4.262141 	 -7.106495 	 5.156543 
O 	 4.086104 	 4.783201 	 -4.394419 
O 	 -6.819931 	 2.102401 	 -6.923872 
O 	 2.964785 	 -0.901103 	 6.668937 
O 	 7.261694 	 4.310310 	 -2.896094 
O 	 -1.395332 	 0.687451 	 -1.385081 
O 	 -5.180233 	 -4.081709 	 7.151866 
O 	 3.655508 	 2.563663 	 -6.226914 
O 	 5.352228 	 -5.655795 	 2.627840 
O 	 -1.929555 	 -2.060163 	 7.517647 
O 	 -0.919641 	 0.682956 	 -7.042794 
O 	 1.985165 	 5.833219 	 1.640066 
O 	 -1.232027 	 3.195010 	 1.434991 
O 	 -0.199372 	 -5.241859 	 -0.100441 
O 	 5.776336 	 0.025452 	 7.355809 
O 	 -6.927911 	 5.358114 	 2.983311 
O 	 5.281683 	 0.931063 	 1.708162 
O 	 3.836031 	 7.107446 	 -7.240445 
O 	 -7.210390 	 -2.073089 	 -4.790724 
O 	 -3.083682 	 -6.367752 	 5.320303 
O 	 6.233022 	 -2.190473 	 4.458938 
O 	 6.054157 	 -4.607670 	 5.854024 
O 	 4.898709 	 4.454328 	 7.145993 
O 	 2.600747 	 -0.018969 	 -1.770630 
O 	 5.148317 	 2.347274 	 -2.629217 
O 	 -5.652649 	 -1.753994 	 5.338071 
O 	 1.482731 	 0.614765 	 5.099445 
O 	 -0.095639 	 -3.187035 	 5.724736 
O 	 2.272249 	 4.555089 	 -1.299430 
O 	 2.427927 	 -3.080045 	 -0.989877 
O 	 -2.948590 	 4.034676 	 -1.221235 
O 	 -2.913901 	 -2.688331 	 4.393878 
O 	 1.494796 	 -6.830075 	 3.492957 
O 	 0.534789 	 -1.630237 	 1.080061 
O 	 -4.870957 	 0.033829 	 -5.867262 
O 	 -0.659556 	 5.133878 	 -6.309349 
O 	 5.936929 	 -4.986261 	 -3.353762 
O 	 -0.426308 	 6.895461 	 -2.591725 
O 	 0.078193 	 -5.308059 	 -3.502466 
O 	 6.184124 	 4.914987 	 0.443995 
O 	 7.248780 	 -7.234006 	 4.496407 
O 	 -3.982206 	 0.186551 	 -0.099337 
O 	 3.080738 	 -5.705030 	 -1.835329 
O 	 1.708843 	 2.227297 	 2.867738 
O 	 -5.118733 	 5.226226 	 -7.171780 
O 	 -0.221192 	 3.463075 	 -1.624066 
O 	 0.821553 	 -3.268190 	 -5.252789 
O 	 -2.145405 	 6.635350 	 -4.744404 
O 	 -5.929024 	 3.543163 	 0.081736 
O 	 5.549837 	 -2.154943 	 -3.153086 
O 	 -7.403747 	 2.556237 	 2.451991 
O 	 -5.838502 	 -1.131575 	 2.457904 
O 	 -5.750284 	 2.390752 	 4.921650 
O 	 3.479925 	 -6.811197 	 0.739167 
O 	 -7.070077 	 0.604040 	 0.262686 
O 	 -6.835404 	 7.114618 	 -3.512458 
O 	 0.210524 	 -5.319527 	 -7.189938 
O 	 -3.470760 	 1.869340 	 2.135591 
O 	 -6.250201 	 -6.463396 	 -1.226927 
O 	 5.059640 	 -1.788658 	 -0.000299 
O 	 -6.574354 	 0.815948 	 -3.245479 
O 	 4.397249 	 2.916753 	 -0.075566 
O 	 0.969670 	 2.558020 	 7.263496 
O 	 2.054694 	 1.354045 	 -4.194038 
O 	 1.394688 	 7.414936 	 -5.714112 
O 	 0.173998 	 -2.164576 	 -2.423439 
O 	 2.456326 	 6.723655 	 -3.048780 
O 	 0.506365 	 1.092661 	 0.834153 
O 	 4.362038 	 5.703857 	 2.915259 
O 	 -2.930607 	 -2.883540 	 -2.848676 
O 	 -6.582641 	 -1.715203 	 -1.932036 
O 	 7.232736 	 4.566722 	 -6.072561 
O 	 2.881776 	 -4.281841 	 2.759566 
O 	 1.699877 	 4.840426 	 5.843598 
K 	 -3.493606 	 -7.288172 	 -7.234311 
