333
conformation = 38
H 	 -2.643963 	 6.677008 	 -4.472524 
H 	 -2.774585 	 -6.803032 	 -3.727186 
H 	 -6.199879 	 3.700404 	 1.042207 
H 	 -5.042384 	 3.234053 	 0.203493 
H 	 -0.859981 	 6.706430 	 3.078889 
H 	 -1.163283 	 -7.169709 	 1.966532 
H 	 -5.367636 	 -7.006788 	 -5.917638 
H 	 -3.818240 	 -7.235373 	 -6.052255 
H 	 -1.732099 	 5.387949 	 6.079722 
H 	 -2.277663 	 5.416508 	 4.596455 
H 	 -4.504694 	 4.847376 	 3.623649 
H 	 -3.935733 	 6.213510 	 3.366994 
H 	 1.377823 	 3.118352 	 -5.590156 
H 	 0.853372 	 4.489073 	 -6.157683 
H 	 -2.283710 	 -1.003285 	 3.957935 
H 	 -0.750206 	 -0.672461 	 3.445374 
H 	 1.180169 	 5.116383 	 -2.147501 
H 	 0.772327 	 5.700998 	 -0.804738 
H 	 -0.777686 	 -2.669076 	 3.561406 
H 	 0.491956 	 -3.553468 	 3.845820 
H 	 -7.690110 	 7.613504 	 -4.836535 
H 	 7.149243 	 -6.006708 	 -5.675699 
H 	 1.846937 	 -0.765186 	 3.864039 
H 	 0.968882 	 0.458225 	 3.135820 
H 	 6.342233 	 -2.833386 	 2.989980 
H 	 6.436915 	 -2.187517 	 4.505959 
H 	 -4.204180 	 -1.065505 	 5.668594 
H 	 -2.930838 	 -0.067138 	 5.938955 
H 	 5.256978 	 7.586764 	 -1.080512 
H 	 4.291516 	 -6.137739 	 -0.620147 
H 	 -4.532656 	 -6.305349 	 3.514510 
H 	 -2.965031 	 -6.432275 	 3.847523 
H 	 -7.425586 	 5.781249 	 2.315077 
H 	 6.359378 	 4.533570 	 2.163479 
H 	 -0.349013 	 2.328280 	 -0.085710 
H 	 -1.282553 	 1.143251 	 -0.633364 
H 	 2.178879 	 1.686654 	 -4.148477 
H 	 0.768575 	 0.886961 	 -3.576794 
H 	 4.193710 	 0.632443 	 -1.782369 
H 	 5.290645 	 0.983664 	 -2.888035 
H 	 1.835313 	 -5.185511 	 -3.826136 
H 	 2.072411 	 -4.263272 	 -2.554739 
H 	 5.553341 	 -1.552815 	 -2.119592 
H 	 5.552750 	 -3.129489 	 -2.258230 
H 	 -2.881981 	 4.012026 	 -4.216088 
H 	 -4.290641 	 4.634332 	 -4.913851 
H 	 -1.505414 	 -6.348669 	 -7.318042 
H 	 -1.514214 	 -6.509163 	 -5.763579 
H 	 5.682193 	 3.408327 	 5.890414 
H 	 5.455813 	 3.879229 	 -7.536708 
H 	 4.964358 	 7.529299 	 3.188970 
H 	 4.173934 	 -6.431667 	 2.381619 
H 	 3.026406 	 -3.910954 	 1.455783 
H 	 2.297941 	 -4.833546 	 2.295571 
H 	 5.386064 	 -5.163277 	 -2.948402 
H 	 4.020834 	 -4.787947 	 -3.458885 
H 	 -3.428730 	 -3.620209 	 -0.693117 
H 	 -3.141035 	 -3.570657 	 0.838121 
H 	 -2.842758 	 1.676392 	 -2.988629 
H 	 -3.475893 	 2.450839 	 -1.741943 
H 	 -6.623962 	 -6.823490 	 2.386505 
H 	 -5.731288 	 7.339417 	 1.284175 
H 	 -3.489970 	 1.273731 	 4.619648 
H 	 -3.976336 	 2.740979 	 4.700621 
H 	 -4.676113 	 6.426115 	 -1.463507 
H 	 -5.244231 	 5.619558 	 -2.571959 
H 	 -2.857125 	 -1.296395 	 -0.057393 
H 	 -2.147318 	 -0.871201 	 1.277448 
H 	 -1.289509 	 3.626111 	 -7.148886 
H 	 -2.643112 	 4.069139 	 -6.758976 
H 	 -6.341190 	 3.532557 	 -4.931082 
H 	 -7.029861 	 4.901122 	 -5.168664 
H 	 -0.642532 	 2.923476 	 -3.047385 
H 	 -0.540303 	 3.531476 	 -4.399868 
H 	 4.525629 	 4.754864 	 -2.049422 
H 	 5.716558 	 3.732651 	 -2.158928 
H 	 5.068177 	 0.862422 	 4.510321 
H 	 4.811255 	 0.922870 	 3.064161 
H 	 -6.030890 	 -0.463359 	 1.613679 
H 	 -6.793274 	 -1.668988 	 1.133116 
H 	 3.852629 	 -3.493258 	 -0.534255 
H 	 5.051026 	 -4.221994 	 0.302053 
H 	 -6.342531 	 1.843195 	 5.342756 
H 	 -5.735701 	 0.400764 	 5.592719 
H 	 -0.301186 	 -2.865273 	 5.838248 
H 	 0.008386 	 -3.589675 	 7.260234 
H 	 -3.621973 	 -6.965842 	 1.317185 
H 	 -4.197840 	 -6.519343 	 -0.081156 
H 	 4.377034 	 -1.023551 	 2.749652 
H 	 3.641091 	 -0.716043 	 1.468573 
H 	 6.588934 	 5.622883 	 -3.221398 
H 	 5.573435 	 6.409248 	 -4.032660 
H 	 -1.599497 	 -4.782192 	 0.487065 
H 	 -0.278094 	 -5.624550 	 0.254579 
H 	 0.904770 	 -3.257020 	 1.211355 
H 	 -0.625311 	 -3.049426 	 0.840607 
H 	 4.582038 	 2.368732 	 -4.505083 
H 	 3.037360 	 2.123124 	 -5.970743 
H 	 -0.922664 	 -0.681730 	 -5.150625 
H 	 -0.382818 	 0.512103 	 -5.948642 
H 	 1.544402 	 7.016177 	 -6.969069 
H 	 0.018487 	 6.991527 	 -6.965001 
H 	 -7.633444 	 -4.161353 	 0.456729 
H 	 6.703000 	 -2.922287 	 -0.317475 
H 	 -6.447257 	 1.128022 	 -3.994838 
H 	 -5.234424 	 1.737678 	 -3.086402 
H 	 7.050473 	 -1.960221 	 -4.460994 
H 	 5.968990 	 -2.969185 	 -4.397004 
H 	 5.265528 	 2.819655 	 0.748061 
H 	 5.165820 	 4.241031 	 0.236464 
H 	 -5.708238 	 -4.570153 	 3.305997 
H 	 -6.861108 	 -5.421443 	 3.897425 
H 	 -2.542940 	 5.915576 	 -1.961976 
H 	 -1.220620 	 5.104385 	 -1.734210 
H 	 7.194906 	 -6.475193 	 -2.048720 
H 	 -7.244970 	 -5.412908 	 -3.061525 
H 	 6.719740 	 6.133861 	 -1.061354 
H 	 -7.532707 	 7.045165 	 0.020513 
H 	 5.801988 	 0.896054 	 -0.499198 
H 	 5.573157 	 0.542989 	 0.991715 
H 	 3.419206 	 -2.822621 	 7.274471 
H 	 3.302890 	 -4.163733 	 6.431037 
H 	 6.917570 	 -0.272227 	 5.473635 
H 	 5.827399 	 -0.979507 	 6.458183 
H 	 -4.563091 	 -5.227003 	 -2.279844 
H 	 -5.574830 	 -5.229537 	 -1.152619 
H 	 2.000070 	 -2.068634 	 -0.956167 
H 	 2.488356 	 -2.077897 	 -2.419042 
H 	 1.535901 	 -6.589559 	 -1.644823 
H 	 1.500276 	 -7.083245 	 -0.172564 
H 	 2.483224 	 0.746732 	 6.885795 
H 	 4.002312 	 0.460278 	 6.958834 
H 	 4.217681 	 -6.065604 	 -7.263063 
H 	 3.774869 	 7.575134 	 6.852521 
H 	 -0.989333 	 0.758110 	 6.921043 
H 	 -2.063539 	 1.825774 	 6.848087 
H 	 -2.141910 	 -5.503320 	 -1.555271 
H 	 -1.131681 	 -6.596131 	 -1.878490 
H 	 2.578286 	 3.958042 	 -3.843734 
H 	 2.800014 	 5.518880 	 -3.752635 
H 	 0.791299 	 -5.411483 	 -5.965207 
H 	 1.511676 	 -3.992977 	 -5.960211 
H 	 -4.549822 	 -2.513400 	 2.216103 
H 	 -3.141404 	 -2.956506 	 2.730475 
H 	 1.280289 	 2.275153 	 1.968109 
H 	 -0.211895 	 2.356880 	 2.437184 
H 	 6.902841 	 5.799311 	 4.382606 
H 	 6.532852 	 6.386446 	 5.667669 
H 	 1.568990 	 3.556926 	 5.591259 
H 	 0.405429 	 3.750475 	 6.525631 
H 	 1.580751 	 5.959494 	 5.492699 
H 	 0.231622 	 5.795980 	 4.937266 
H 	 -6.687785 	 1.296828 	 -6.530391 
H 	 6.966236 	 2.032197 	 -7.138068 
H 	 -6.911956 	 3.636206 	 -2.669360 
H 	 -6.243983 	 4.045111 	 -1.272174 
H 	 -2.346650 	 -3.159388 	 -7.440075 
H 	 -2.989314 	 -3.795636 	 -6.103372 
H 	 3.994569 	 5.546984 	 7.224046 
H 	 3.984113 	 5.125721 	 5.745264 
H 	 2.326711 	 -0.180793 	 -3.686411 
H 	 3.706379 	 -0.806615 	 -3.647966 
H 	 -3.544076 	 1.008585 	 0.579971 
H 	 -4.598101 	 1.590272 	 1.636100 
H 	 0.817195 	 0.013870 	 5.410634 
H 	 0.420626 	 -0.800787 	 6.695869 
H 	 1.866728 	 7.539976 	 2.311707 
H 	 1.583361 	 -7.210298 	 3.723589 
H 	 -1.910935 	 3.098495 	 3.856140 
H 	 -0.518411 	 3.478681 	 4.247296 
H 	 -3.901161 	 0.560713 	 -6.711606 
H 	 -4.832636 	 -0.669704 	 -6.795705 
H 	 6.447885 	 -4.460807 	 4.749930 
H 	 6.143455 	 -6.097826 	 4.687730 
H 	 -5.764257 	 -0.991979 	 -3.350953 
H 	 -5.452750 	 -0.552430 	 -4.722987 
H 	 -5.358662 	 -3.735321 	 -4.932281 
H 	 -5.086416 	 -5.214095 	 -4.532287 
H 	 -4.380542 	 -0.075038 	 -1.841857 
H 	 -5.396705 	 -0.860981 	 -1.033008 
H 	 5.315370 	 5.039944 	 -5.555628 
H 	 4.169290 	 3.978314 	 -5.424909 
H 	 -7.086978 	 -2.669944 	 -6.257696 
H 	 -5.900071 	 -3.051467 	 -7.153765 
H 	 -6.382980 	 4.182117 	 4.123246 
H 	 -5.658270 	 4.396750 	 5.529966 
H 	 1.733059 	 5.490897 	 1.450194 
H 	 0.631504 	 6.548270 	 1.260664 
H 	 -2.630481 	 -2.248041 	 -3.964383 
H 	 -2.759877 	 -1.793833 	 -5.398822 
H 	 -5.681959 	 4.853710 	 -7.142426 
H 	 -5.261581 	 6.126263 	 7.213326 
H 	 6.404930 	 -4.993583 	 7.198839 
H 	 5.724968 	 -4.254371 	 -6.409502 
H 	 -5.402043 	 -3.258175 	 5.541113 
H 	 -6.387947 	 -2.459305 	 4.589193 
H 	 6.102905 	 0.240892 	 -6.634488 
H 	 5.737543 	 -1.154439 	 -6.084954 
H 	 1.076494 	 -1.234752 	 0.617329 
H 	 1.843415 	 0.147897 	 0.155842 
H 	 2.916786 	 -2.695002 	 3.366484 
H 	 3.361212 	 -2.439852 	 4.914387 
H 	 2.498342 	 4.300341 	 3.541947 
H 	 3.325268 	 4.065374 	 2.213452 
H 	 2.031199 	 -5.882894 	 6.438504 
H 	 1.632981 	 -5.575298 	 5.005409 
H 	 3.473935 	 2.612714 	 5.848727 
H 	 3.728398 	 2.804630 	 4.382510 
H 	 0.818375 	 -1.679922 	 -6.023692 
H 	 2.069076 	 -1.858629 	 -5.132797 
H 	 6.116789 	 2.701744 	 -4.655567 
H 	 2.087329 	 1.718971 	 -1.596258 
H 	 -1.070818 	 -5.705366 	 5.193765 
H 	 -1.548949 	 -7.190782 	 5.342793 
H 	 -5.173604 	 -5.851137 	 6.910659 
H 	 -6.339564 	 -5.503607 	 5.936164 
H 	 -7.094889 	 1.214440 	 2.983494 
H 	 -7.451966 	 1.203978 	 1.406492 
H 	 3.874132 	 -6.965846 	 -3.139121 
H 	 3.825237 	 -6.808267 	 -4.636878 
H 	 2.861529 	 2.409375 	 -0.379254 
O 	 -2.641687 	 -7.240934 	 -4.586336 
O 	 -5.715977 	 3.957711 	 0.255599 
O 	 -0.879766 	 6.814511 	 2.094237 
O 	 -4.665782 	 -7.241090 	 -6.586868 
O 	 -1.751922 	 5.944110 	 5.269250 
O 	 -3.670064 	 5.275805 	 3.245920 
O 	 0.638176 	 3.527403 	 -6.158922 
O 	 -1.661274 	 -1.019859 	 3.209759 
O 	 0.522800 	 4.939819 	 -1.437676 
O 	 -0.437229 	 -3.387542 	 4.119180 
O 	 -7.100129 	 -6.566850 	 -5.164944 
O 	 0.996399 	 -0.231329 	 3.846853 
O 	 6.649941 	 -3.001957 	 3.926349 
O 	 -3.600415 	 -0.421886 	 5.288197 
O 	 4.312995 	 -7.016960 	 -1.074539 
O 	 -3.728249 	 -6.916390 	 3.427925 
O 	 7.145147 	 4.871798 	 2.622997 
O 	 -1.119510 	 2.117037 	 -0.673241 
O 	 1.701647 	 1.193502 	 -3.277525 
O 	 5.093736 	 0.360159 	 -2.083918 
O 	 2.148583 	 -5.163964 	 -2.901646 
O 	 6.151260 	 -2.335034 	 -2.010992 
O 	 -3.311050 	 4.670259 	 -4.887530 
O 	 -0.969594 	 -6.106354 	 -6.516313 
O 	 6.163999 	 3.476272 	 6.742842 
O 	 5.046251 	 -6.498805 	 2.823871 
O 	 2.367512 	 -3.885886 	 2.166755 
O 	 4.941291 	 -4.920180 	 -3.770374 
O 	 -2.670136 	 -3.531287 	 -0.083650 
O 	 -3.637723 	 1.781588 	 -2.440649 
O 	 -6.600874 	 7.279490 	 1.745427 
O 	 -3.231498 	 2.218371 	 4.475623 
O 	 -4.669861 	 6.408979 	 -2.437798 
O 	 -2.370977 	 -0.570914 	 0.391109 
O 	 -2.129609 	 3.901921 	 -7.557449 
O 	 -6.198362 	 4.448252 	 -5.349636 
O 	 -1.207403 	 3.208687 	 -3.774299 
O 	 5.433229 	 4.564017 	 -1.686421 
O 	 5.059617 	 1.515134 	 3.802658 
O 	 -5.870177 	 -1.365307 	 1.254297 
O 	 4.141026 	 -4.303072 	 0.010990 
O 	 -6.550300 	 0.848449 	 5.308740 
O 	 -0.353100 	 -2.790495 	 6.813332 
O 	 -4.098509 	 7.592435 	 0.508253 
O 	 4.584450 	 -0.707738 	 1.854073 
O 	 6.419011 	 5.870698 	 -4.171502 
O 	 -0.904642 	 -5.328578 	 0.890299 
O 	 0.197873 	 -2.612186 	 1.171103 
O 	 2.974021 	 2.503404 	 -5.061707 
O 	 -0.165844 	 -0.119384 	 -5.233145 
O 	 0.783898 	 6.413086 	 -6.871658 
O 	 6.871077 	 -3.271294 	 0.592957 
O 	 -5.927666 	 1.948453 	 -3.741637 
O 	 6.405135 	 -2.379951 	 -5.012487 
O 	 4.943176 	 3.712128 	 0.998874 
O 	 -6.084868 	 -5.497640 	 3.365483 
O 	 -2.099644 	 5.307046 	 -1.309941 
O 	 7.130491 	 -5.529888 	 -2.263998 
O 	 7.105652 	 7.017209 	 -0.902206 
O 	 6.031515 	 1.184889 	 0.443060 
O 	 3.676266 	 -3.265202 	 6.461662 
O 	 6.174290 	 -0.970301 	 5.546314 
O 	 -4.626623 	 -5.124132 	 -1.290570 
O 	 2.518775 	 -2.613041 	 -1.572811 
O 	 0.982682 	 -6.591497 	 -0.831549 
O 	 3.369529 	 1.177740 	 6.899647 
O 	 3.447690 	 -6.429525 	 7.140193 
O 	 -1.974804 	 0.861778 	 6.995367 
O 	 -1.837486 	 -6.043059 	 -2.272483 
O 	 2.636725 	 4.719525 	 -3.256478 
O 	 1.628101 	 -4.958813 	 -5.680543 
O 	 -3.897293 	 -3.285121 	 2.275759 
O 	 0.464495 	 1.775402 	 1.926281 
O 	 6.884970 	 6.648575 	 4.828992 
O 	 0.607624 	 3.618784 	 5.588624 
O 	 1.097440 	 6.227638 	 4.684371 
O 	 -7.671385 	 1.515914 	 -6.361420 
O 	 -6.584094 	 4.411877 	 -2.149224 
O 	 -3.046959 	 -3.140491 	 -6.766626 
O 	 4.064690 	 5.929261 	 6.313971 
O 	 2.797805 	 -1.044286 	 -3.896143 
O 	 -4.063829 	 1.794607 	 0.847344 
O 	 0.746441 	 0.114227 	 6.453197 
O 	 1.841053 	 -6.653925 	 2.942815 
O 	 -1.039960 	 3.317564 	 3.429712 
O 	 -4.818647 	 0.278908 	 -6.585415 
O 	 6.656231 	 -5.392978 	 5.118162 
O 	 -6.247680 	 -0.748370 	 -4.190974 
O 	 -4.896906 	 -4.298044 	 -4.282988 
O 	 -4.776813 	 -0.974978 	 -1.820157 
O 	 4.531978 	 4.700837 	 -5.980206 
O 	 -6.142626 	 -2.509348 	 -6.361731 
O 	 -5.709006 	 3.832572 	 4.741763 
O 	 1.395449 	 6.159045 	 0.846402 
O 	 -2.382539 	 -1.467164 	 -4.520865 
O 	 -5.261579 	 5.170948 	 6.929717 
O 	 5.992735 	 -5.083312 	 -6.803883 
O 	 -5.495452 	 -2.447344 	 4.961157 
O 	 5.471799 	 -0.506047 	 -6.790976 
O 	 1.941793 	 -0.802273 	 0.541939 
O 	 3.187747 	 -1.990889 	 4.033420 
O 	 2.394068 	 4.113092 	 2.582983 
O 	 1.242951 	 -5.555604 	 5.922944 
O 	 3.454898 	 3.328624 	 5.168809 
O 	 1.620782 	 -2.289863 	 -5.911635 
O 	 5.469895 	 2.412233 	 -3.983550 
O 	 -1.862031 	 -6.246145 	 5.302905 
O 	 -5.518187 	 -5.133884 	 6.322748 
O 	 -6.659827 	 1.243963 	 2.080725 
O 	 3.999309 	 7.382462 	 -4.005208 
O 	 2.625627 	 1.543453 	 -0.762833 
K 	 -2.485049 	 4.253320 	 0.931005 
