333
conformation = 61
H 	 -2.624540 	 6.695529 	 -4.523129 
H 	 -2.453387 	 -6.905613 	 -3.588286 
H 	 -6.127814 	 3.735506 	 1.168698 
H 	 -4.986148 	 3.135541 	 0.328332 
H 	 -0.918872 	 6.625618 	 2.986206 
H 	 -0.884992 	 -7.076227 	 1.881361 
H 	 -5.425948 	 -7.086346 	 -6.079616 
H 	 -3.949962 	 7.482239 	 -5.873210 
H 	 -1.768360 	 5.393411 	 6.185797 
H 	 -2.258602 	 5.582298 	 4.694784 
H 	 -4.279737 	 4.811881 	 3.732472 
H 	 -3.682060 	 6.287005 	 3.369357 
H 	 1.604185 	 3.185547 	 -5.674338 
H 	 0.736277 	 4.450624 	 -6.133541 
H 	 -2.065669 	 -0.650222 	 4.047399 
H 	 -0.610519 	 -0.837213 	 3.592148 
H 	 1.345619 	 4.839382 	 -1.998700 
H 	 1.050412 	 5.260022 	 -0.508561 
H 	 -0.661308 	 -2.556197 	 3.665816 
H 	 0.523074 	 -3.444242 	 3.745574 
H 	 -7.451145 	 7.398709 	 -4.799714 
H 	 -7.548558 	 -6.132760 	 -5.698328 
H 	 1.935578 	 -0.744881 	 3.704359 
H 	 1.140904 	 0.518642 	 3.214618 
H 	 6.506854 	 -2.909419 	 3.082363 
H 	 6.386024 	 -2.255425 	 4.505707 
H 	 -3.960640 	 -1.160313 	 5.568677 
H 	 -2.866054 	 -0.124503 	 6.099976 
H 	 5.319429 	 -7.215932 	 -0.927598 
H 	 4.337996 	 -6.015448 	 -0.890938 
H 	 -4.427814 	 -6.443194 	 3.907558 
H 	 -2.883929 	 -6.484008 	 4.044178 
H 	 -7.140656 	 5.594832 	 2.291078 
H 	 6.417949 	 4.695336 	 2.232731 
H 	 -0.163355 	 2.380161 	 -0.131480 
H 	 -0.989154 	 1.204464 	 -0.420015 
H 	 2.331051 	 1.791340 	 -3.808205 
H 	 0.922806 	 1.146807 	 -3.515616 
H 	 4.471788 	 0.788550 	 -1.637266 
H 	 5.624911 	 0.966753 	 -2.649980 
H 	 1.888038 	 -5.153630 	 -3.702963 
H 	 1.805477 	 -4.470217 	 -2.256351 
H 	 5.930518 	 -1.444077 	 -1.899903 
H 	 5.622780 	 -2.917266 	 -2.182772 
H 	 -2.795690 	 3.938067 	 -4.261548 
H 	 -4.104352 	 4.614472 	 -4.708446 
H 	 -1.360051 	 -5.857660 	 -7.120813 
H 	 -1.460272 	 -6.486522 	 -5.642273 
H 	 5.729201 	 3.056529 	 6.082058 
H 	 5.819191 	 3.847939 	 -7.455542 
H 	 5.088663 	 7.517135 	 3.442658 
H 	 4.186056 	 -6.347147 	 2.664525 
H 	 3.260199 	 -3.945714 	 1.569979 
H 	 2.262392 	 -4.745442 	 2.602977 
H 	 5.717637 	 -5.281075 	 -3.106715 
H 	 4.134924 	 -4.985372 	 -3.205132 
H 	 -3.401771 	 -3.816216 	 -0.536727 
H 	 -2.963266 	 -3.584924 	 0.911059 
H 	 -2.642232 	 1.673590 	 -2.905593 
H 	 -3.192292 	 2.352786 	 -1.727190 
H 	 -6.489264 	 -6.858567 	 2.384180 
H 	 -5.493924 	 7.305453 	 1.403697 
H 	 -3.451127 	 1.377148 	 4.914338 
H 	 -3.842543 	 2.881900 	 4.817660 
H 	 -4.472635 	 6.393206 	 -1.381937 
H 	 -5.318332 	 5.648053 	 -2.441436 
H 	 -2.735607 	 -1.351891 	 0.032154 
H 	 -2.031505 	 -0.937634 	 1.352720 
H 	 -1.023011 	 3.652758 	 -7.113665 
H 	 -2.407196 	 4.352690 	 -6.746597 
H 	 -5.972296 	 3.594762 	 -4.690308 
H 	 -6.796645 	 5.032207 	 -4.864714 
H 	 -0.511832 	 2.976052 	 -2.936083 
H 	 -0.525591 	 3.255730 	 -4.500673 
H 	 4.681488 	 4.913042 	 -1.843901 
H 	 5.685455 	 3.824018 	 -2.235128 
H 	 5.667858 	 0.794867 	 4.397799 
H 	 4.936057 	 1.202545 	 3.028571 
H 	 -6.164444 	 -0.817181 	 1.985733 
H 	 -6.449481 	 -2.138782 	 1.215217 
H 	 4.060670 	 -3.704411 	 -0.507575 
H 	 5.198329 	 -3.916909 	 0.493905 
H 	 -6.227253 	 1.725349 	 5.259780 
H 	 -5.460561 	 0.376801 	 5.528951 
H 	 -0.315188 	 -3.393638 	 6.031235 
H 	 0.318491 	 -3.503862 	 -7.476277 
H 	 -3.546668 	 -7.116371 	 1.529402 
H 	 -3.799849 	 -6.403724 	 0.187939 
H 	 4.324284 	 -1.098410 	 2.724145 
H 	 3.812532 	 -0.729208 	 1.292373 
H 	 6.775932 	 5.282055 	 -3.358721 
H 	 5.739271 	 6.415445 	 -3.845090 
H 	 -1.234490 	 -4.994041 	 0.245743 
H 	 0.079635 	 -5.667426 	 0.653800 
H 	 0.887650 	 -3.353683 	 1.500183 
H 	 -0.436136 	 -2.870487 	 0.815471 
H 	 4.671744 	 2.360033 	 -4.344813 
H 	 3.159761 	 2.019371 	 -5.807797 
H 	 -0.928150 	 -0.187375 	 -4.779661 
H 	 -0.055371 	 0.573584 	 -5.827520 
H 	 1.718339 	 6.976372 	 -6.813999 
H 	 0.215662 	 7.189383 	 -6.909987 
H 	 -7.246699 	 -3.968710 	 0.753259 
H 	 7.110159 	 -3.068530 	 -0.329920 
H 	 -6.085280 	 0.932558 	 -3.830821 
H 	 -5.037826 	 1.958336 	 -3.287753 
H 	 7.289775 	 -1.935794 	 -4.374789 
H 	 6.241828 	 -3.162545 	 -4.417924 
H 	 5.647482 	 2.885271 	 0.992070 
H 	 5.156779 	 4.082399 	 0.269154 
H 	 -5.760271 	 -4.612514 	 3.077832 
H 	 -6.636892 	 -5.491228 	 4.104651 
H 	 -2.635420 	 5.828421 	 -1.874122 
H 	 -1.107694 	 5.314829 	 -1.566299 
H 	 -7.512818 	 -6.350834 	 -1.650909 
H 	 -7.208474 	 -5.653479 	 -3.017054 
H 	 -7.521460 	 6.076280 	 -1.085848 
H 	 -7.343562 	 7.115826 	 0.117801 
H 	 6.015419 	 0.834910 	 -0.375039 
H 	 5.738473 	 0.596741 	 1.155224 
H 	 3.336273 	 -2.773504 	 7.364503 
H 	 3.147111 	 -3.925547 	 6.551089 
H 	 7.112686 	 -0.395395 	 5.623620 
H 	 6.051872 	 -1.012273 	 6.585547 
H 	 -4.578807 	 -4.831582 	 -2.077926 
H 	 -5.521895 	 -5.039658 	 -0.986531 
H 	 2.240100 	 -2.010640 	 -0.693746 
H 	 2.542309 	 -2.025274 	 -2.318176 
H 	 1.650465 	 -6.408352 	 -1.445159 
H 	 1.616639 	 7.570336 	 -0.186459 
H 	 2.602433 	 0.852465 	 7.019724 
H 	 4.077221 	 0.399500 	 7.362269 
H 	 4.220626 	 -5.980039 	 -7.111729 
H 	 3.964089 	 7.521244 	 6.972451 
H 	 -0.948990 	 0.756493 	 6.785218 
H 	 -2.001451 	 1.927481 	 6.933227 
H 	 -2.074842 	 -5.504623 	 -1.419512 
H 	 -0.840257 	 -6.380135 	 -1.765138 
H 	 3.137359 	 4.034830 	 -3.829961 
H 	 3.032095 	 5.519597 	 -3.759845 
H 	 0.903041 	 -5.270813 	 -5.892280 
H 	 1.677843 	 -3.983464 	 -5.582958 
H 	 -4.368484 	 -2.521507 	 2.109650 
H 	 -3.140300 	 -3.015406 	 3.026031 
H 	 1.554059 	 2.223186 	 2.126419 
H 	 0.075610 	 2.283853 	 2.680121 
H 	 6.921252 	 5.925614 	 4.308107 
H 	 6.406192 	 6.408225 	 5.737848 
H 	 1.673119 	 3.534761 	 5.428077 
H 	 0.738074 	 3.674605 	 6.686671 
H 	 1.742828 	 6.297783 	 5.602959 
H 	 0.284455 	 6.170566 	 5.030276 
H 	 -6.604161 	 1.294608 	 -6.495012 
H 	 7.096818 	 2.082766 	 -7.090623 
H 	 -6.412091 	 3.636365 	 -2.583067 
H 	 -6.366358 	 4.145869 	 -1.165892 
H 	 -2.057665 	 -3.237887 	 -6.997896 
H 	 -3.089994 	 -3.939320 	 -6.099912 
H 	 4.259126 	 5.365625 	 7.149879 
H 	 3.873028 	 5.430286 	 5.654120 
H 	 2.464661 	 -0.241682 	 -3.548274 
H 	 3.941848 	 -0.818969 	 -3.573593 
H 	 -3.346021 	 0.900777 	 0.761972 
H 	 -4.631714 	 1.382980 	 1.415337 
H 	 1.000522 	 0.252410 	 5.513983 
H 	 0.768736 	 -0.872741 	 6.604839 
H 	 2.146338 	 -7.022472 	 2.114854 
H 	 1.375943 	 7.565108 	 3.497727 
H 	 -1.621330 	 2.977536 	 4.082522 
H 	 -0.165429 	 3.774280 	 4.099656 
H 	 -3.835067 	 0.534400 	 -6.936912 
H 	 -4.851215 	 -0.617724 	 -6.695973 
H 	 6.544387 	 -4.478144 	 4.791093 
H 	 6.231773 	 -5.967532 	 4.839445 
H 	 -5.782149 	 -1.075781 	 -3.116685 
H 	 -5.352857 	 -0.611859 	 -4.677065 
H 	 -5.126811 	 -3.463768 	 -4.760072 
H 	 -4.952622 	 -4.942703 	 -4.855399 
H 	 -4.357243 	 -0.062797 	 -1.763332 
H 	 -5.320184 	 -1.113721 	 -0.974546 
H 	 5.303959 	 5.002567 	 -5.216781 
H 	 4.272325 	 3.809632 	 -5.595049 
H 	 -7.012178 	 -2.372003 	 -6.051332 
H 	 -5.953095 	 -3.232176 	 -6.752974 
H 	 -6.278427 	 4.120809 	 4.307841 
H 	 -5.502240 	 4.480543 	 5.594344 
H 	 1.872658 	 5.491625 	 1.613732 
H 	 0.693096 	 6.383114 	 1.260830 
H 	 -2.553736 	 -2.102045 	 -3.731164 
H 	 -2.451125 	 -1.931202 	 -5.223624 
H 	 -5.547665 	 4.606309 	 -7.232805 
H 	 -4.923791 	 6.088011 	 -7.473334 
H 	 6.066655 	 -5.119633 	 7.158922 
H 	 6.040940 	 -4.125249 	 -6.634499 
H 	 -5.300730 	 -3.299002 	 5.543890 
H 	 -6.223547 	 -2.439771 	 4.651849 
H 	 6.255290 	 0.142127 	 -6.498911 
H 	 5.824235 	 -1.253147 	 -6.036010 
H 	 1.232480 	 -1.216664 	 0.987650 
H 	 1.853958 	 0.050948 	 0.254968 
H 	 3.076979 	 -2.762883 	 3.623356 
H 	 3.466134 	 -2.329617 	 5.075853 
H 	 2.534096 	 4.593390 	 3.553429 
H 	 3.360138 	 3.960649 	 2.335414 
H 	 2.185450 	 -5.993988 	 6.608029 
H 	 1.620737 	 -5.458371 	 5.181456 
H 	 3.449243 	 2.568057 	 5.969584 
H 	 3.977950 	 2.700387 	 4.598024 
H 	 1.021742 	 -1.819321 	 -5.740727 
H 	 2.336715 	 -2.095162 	 -5.115595 
H 	 6.231859 	 2.423448 	 -4.781390 
H 	 2.296783 	 1.592686 	 -1.515264 
H 	 -0.883926 	 -5.688126 	 5.364416 
H 	 -1.409828 	 -7.200660 	 5.402284 
H 	 -5.140761 	 -6.052924 	 6.896763 
H 	 -6.304106 	 -5.365438 	 6.096087 
H 	 -7.188964 	 1.357714 	 2.869102 
H 	 -7.114793 	 1.331592 	 1.338755 
H 	 4.069981 	 7.622861 	 -2.981744 
H 	 4.161312 	 -6.732984 	 -4.552891 
H 	 2.691926 	 2.531249 	 -0.338141 
O 	 -2.513618 	 -7.228726 	 -4.520266 
O 	 -5.536433 	 3.986952 	 0.422117 
O 	 -0.724903 	 6.848062 	 2.056974 
O 	 -4.610439 	 -7.252172 	 -6.586953 
O 	 -1.651396 	 5.972903 	 5.385295 
O 	 -3.563823 	 5.292977 	 3.336244 
O 	 0.706611 	 3.466897 	 -6.030205 
O 	 -1.548340 	 -1.073695 	 3.303549 
O 	 0.622170 	 4.934652 	 -1.367099 
O 	 -0.333687 	 -3.339154 	 4.163416 
O 	 -7.005188 	 -6.647878 	 -5.054257 
O 	 1.116345 	 -0.237959 	 3.903021 
O 	 6.835031 	 -2.979482 	 3.985175 
O 	 -3.455148 	 -0.319181 	 5.306731 
O 	 4.371398 	 -6.955583 	 -1.094536 
O 	 -3.632274 	 -6.852934 	 3.499144 
O 	 7.292767 	 4.828543 	 2.753433 
O 	 -0.955103 	 2.150452 	 -0.623217 
O 	 1.799471 	 1.177683 	 -3.125611 
O 	 5.305184 	 0.359378 	 -1.970670 
O 	 2.229723 	 -5.210953 	 -2.754210 
O 	 6.263779 	 -2.339829 	 -1.822436 
O 	 -3.137404 	 4.684561 	 -4.785300 
O 	 -0.832352 	 -6.160336 	 -6.375802 
O 	 6.345255 	 3.459415 	 6.736100 
O 	 5.119497 	 -6.533888 	 2.892910 
O 	 2.519102 	 -3.886197 	 2.227420 
O 	 5.010332 	 -4.901288 	 -3.678571 
O 	 -2.589744 	 -3.582335 	 -0.009367 
O 	 -3.517968 	 1.804313 	 -2.450464 
O 	 -6.422935 	 7.275055 	 1.804007 
O 	 -3.140197 	 2.224343 	 4.578472 
O 	 -4.647615 	 6.359104 	 -2.348271 
O 	 -2.301119 	 -0.560348 	 0.429637 
O 	 -1.912746 	 3.937637 	 -7.471784 
O 	 -6.070440 	 4.459526 	 -5.256364 
O 	 -1.071400 	 3.215937 	 -3.688877 
O 	 5.601719 	 4.631940 	 -1.691390 
O 	 5.131771 	 1.516427 	 3.907997 
O 	 -5.792879 	 -1.441625 	 1.327215 
O 	 4.360457 	 -4.359304 	 0.162230 
O 	 -6.391753 	 0.776861 	 5.399951 
O 	 -0.245174 	 -2.881293 	 6.905386 
O 	 -3.949159 	 -7.243410 	 0.651230 
O 	 4.587894 	 -0.668701 	 1.897934 
O 	 6.545391 	 5.890333 	 -4.137560 
O 	 -0.790300 	 -5.328761 	 1.060393 
O 	 0.342340 	 -2.570858 	 1.271511 
O 	 3.071095 	 2.508998 	 -4.965207 
O 	 0.000140 	 -0.112524 	 -5.130995 
O 	 0.890565 	 6.461771 	 -6.828912 
O 	 7.001563 	 -3.278047 	 0.641863 
O 	 -5.920159 	 1.946097 	 -3.678930 
O 	 6.561250 	 -2.382253 	 -4.911989 
O 	 5.107659 	 3.678114 	 1.144982 
O 	 -5.903309 	 -5.516847 	 3.416123 
O 	 -2.030399 	 5.380414 	 -1.211676 
O 	 7.207959 	 -5.519506 	 -2.160527 
O 	 7.199355 	 7.020113 	 -0.819392 
O 	 6.204036 	 1.212178 	 0.547530 
O 	 3.848474 	 -3.215780 	 6.608890 
O 	 6.283456 	 -0.925086 	 5.615341 
O 	 -4.550055 	 -5.184098 	 -1.164648 
O 	 2.644827 	 -2.547837 	 -1.475704 
O 	 1.115433 	 -6.654909 	 -0.640826 
O 	 3.521470 	 1.145743 	 7.004057 
O 	 3.596570 	 -6.475629 	 7.219788 
O 	 -1.868156 	 0.987174 	 7.153716 
O 	 -1.678665 	 -6.057964 	 -2.131919 
O 	 2.848816 	 4.716825 	 -3.192318 
O 	 1.785852 	 -4.995923 	 -5.617556 
O 	 -3.827235 	 -3.282492 	 2.354464 
O 	 0.679302 	 1.757890 	 2.029294 
O 	 6.937140 	 6.688167 	 4.932691 
O 	 0.721952 	 3.640220 	 5.716100 
O 	 1.220703 	 6.194670 	 4.785595 
O 	 -7.533519 	 1.490919 	 -6.341641 
O 	 -6.486041 	 4.444280 	 -2.066672 
O 	 -3.002660 	 -3.119875 	 -6.661899 
O 	 4.143653 	 5.946041 	 6.403556 
O 	 3.017520 	 -1.028566 	 -3.784794 
O 	 -3.896851 	 1.718436 	 0.821038 
O 	 0.791787 	 0.086649 	 6.503519 
O 	 1.989815 	 -6.697556 	 3.051015 
O 	 -0.893310 	 3.343870 	 3.511229 
O 	 -4.638246 	 0.311810 	 -6.473092 
O 	 6.835631 	 -5.314402 	 5.298730 
O 	 -6.061274 	 -0.749643 	 -4.006116 
O 	 -4.837307 	 -4.220585 	 -4.216104 
O 	 -4.705075 	 -0.989356 	 -1.727310 
O 	 4.676733 	 4.660618 	 -5.938219 
O 	 -6.036680 	 -2.406857 	 -6.263696 
O 	 -5.534929 	 3.830809 	 4.871324 
O 	 1.634475 	 6.118860 	 0.896970 
O 	 -2.281669 	 -1.495528 	 -4.406901 
O 	 -5.187948 	 5.211474 	 7.027120 
O 	 6.046709 	 -5.085493 	 -6.776298 
O 	 -5.338481 	 -2.430610 	 5.097359 
O 	 5.607633 	 -0.570372 	 -6.711075 
O 	 2.051839 	 -0.823262 	 0.616586 
O 	 3.379164 	 -1.993262 	 4.122544 
O 	 2.510570 	 4.123141 	 2.703100 
O 	 1.366609 	 -5.564294 	 6.104965 
O 	 3.563554 	 3.264224 	 5.305738 
O 	 1.810075 	 -2.335154 	 -5.883352 
O 	 5.636638 	 2.444318 	 -3.987307 
O 	 -1.699131 	 -6.252349 	 5.395646 
O 	 -5.388005 	 -5.183396 	 6.489421 
O 	 -6.546194 	 1.247616 	 2.179938 
O 	 4.151548 	 7.388666 	 -3.941036 
O 	 2.688482 	 1.576270 	 -0.602613 
K 	 -2.376688 	 4.239303 	 1.035160 
