333
conformation = 1
H 	 20.490147 	 12.333629 	 2.372933 
H 	 21.235593 	 13.673726 	 3.060777 
H 	 32.100290 	 9.733829 	 7.764060 
H 	 32.868508 	 8.520098 	 7.300172 
H 	 22.951402 	 12.525831 	 495.175956 
H 	 22.652611 	 13.206585 	 8.681172 
H 	 33.060716 	 13.359440 	 0.788344 
H 	 19.640383 	 13.430493 	 1.115925 
H 	 21.715525 	 10.830575 	 497.926936 
H 	 21.302329 	 11.245280 	 496.453858 
H 	 19.257442 	 10.507041 	 495.805005 
H 	 19.755654 	 11.807260 	 495.177317 
H 	 25.155239 	 8.785621 	 0.767431 
H 	 24.495086 	 10.246059 	 0.481357 
H 	 21.277906 	 4.926210 	 495.846957 
H 	 22.785990 	 4.885191 	 495.380207 
H 	 24.926644 	 10.521859 	 4.734777 
H 	 24.517897 	 11.143880 	 6.019287 
H 	 22.828472 	 2.685576 	 495.481762 
H 	 24.067590 	 1.814428 	 495.772046 
H 	 31.081686 	 13.293760 	 2.082364 
H 	 30.766730 	 14.460393 	 1.102282 
H 	 25.241179 	 4.640104 	 495.760179 
H 	 24.757913 	 5.995332 	 495.076467 
H 	 30.046704 	 2.734312 	 494.968779 
H 	 29.790557 	 3.380719 	 496.484411 
H 	 19.383958 	 4.196045 	 497.238795 
H 	 20.423163 	 5.100984 	 498.171851 
H 	 28.935863 	 13.284310 	 6.205838 
H 	 27.680551 	 14.217784 	 6.223882 
H 	 33.913412 	 13.759003 	 495.423792 
H 	 20.386510 	 13.842969 	 496.108612 
H 	 31.072921 	 11.327095 	 9.045023 
H 	 29.966483 	 10.078691 	 8.949249 
H 	 23.099782 	 7.480625 	 6.929328 
H 	 21.832151 	 6.871500 	 6.327587 
H 	 25.859306 	 7.386850 	 2.792578 
H 	 24.457967 	 6.750779 	 2.909732 
H 	 27.695616 	 6.307884 	 5.137693 
H 	 28.755761 	 6.726767 	 4.046272 
H 	 25.361419 	 15.499749 	 2.926308 
H 	 25.685703 	 1.299161 	 4.344623 
H 	 29.104862 	 3.982097 	 4.682013 
H 	 29.228749 	 2.485368 	 4.474477 
H 	 20.731038 	 9.888902 	 2.578983 
H 	 19.257841 	 10.266629 	 2.016034 
H 	 22.203733 	 14.334760 	 499.331525 
H 	 21.961822 	 13.943269 	 0.787441 
H 	 29.495774 	 9.405909 	 497.962320 
H 	 29.011099 	 9.463952 	 499.445853 
H 	 28.981938 	 13.058023 	 494.843798 
H 	 27.751722 	 13.930827 	 494.694561 
H 	 26.572313 	 1.460758 	 8.241545 
H 	 25.674496 	 0.687408 	 494.440353 
H 	 29.137913 	 15.155678 	 3.682854 
H 	 27.660173 	 15.537211 	 3.301202 
H 	 20.350869 	 1.904331 	 6.045011 
H 	 20.336736 	 2.276933 	 7.550641 
H 	 20.614601 	 7.532356 	 3.838431 
H 	 20.311992 	 7.975478 	 5.268676 
H 	 31.784453 	 13.685154 	 8.992202 
H 	 32.673419 	 12.578376 	 8.277193 
H 	 20.186570 	 6.833935 	 496.297356 
H 	 19.450509 	 8.284820 	 496.239099 
H 	 33.711131 	 12.349672 	 5.312977 
H 	 33.402176 	 11.401464 	 4.185961 
H 	 21.424215 	 4.195023 	 6.976645 
H 	 21.681002 	 4.992199 	 8.213767 
H 	 22.054430 	 9.394963 	 0.063224 
H 	 20.532857 	 9.779770 	 499.806977 
H 	 32.156402 	 9.053899 	 1.710977 
H 	 31.534078 	 10.421916 	 1.939732 
H 	 22.750110 	 8.960930 	 3.988577 
H 	 23.147644 	 8.924898 	 2.496223 
H 	 28.075149 	 10.016731 	 4.736719 
H 	 29.588620 	 9.571798 	 4.860930 
H 	 28.326699 	 6.685487 	 496.601701 
H 	 28.456838 	 6.371719 	 495.044227 
H 	 32.490779 	 5.365631 	 8.286907 
H 	 31.853992 	 3.997571 	 8.131780 
H 	 27.129126 	 1.827894 	 6.050830 
H 	 28.373768 	 1.893829 	 7.074793 
H 	 31.989783 	 7.549251 	 497.282792 
H 	 32.761796 	 6.213061 	 497.517995 
H 	 22.999439 	 3.037659 	 497.789878 
H 	 23.703141 	 2.149051 	 498.835961 
H 	 19.890613 	 13.418761 	 8.041507 
H 	 19.366788 	 13.872303 	 6.709030 
H 	 28.264403 	 4.174710 	 494.700309 
H 	 27.414037 	 4.710818 	 8.422432 
H 	 30.249317 	 11.236148 	 3.669183 
H 	 29.186265 	 12.038353 	 3.014040 
H 	 21.853735 	 0.672833 	 7.493950 
H 	 23.245385 	 14.882800 	 6.791171 
H 	 24.371820 	 2.451216 	 8.512095 
H 	 23.183429 	 2.349528 	 7.429894 
H 	 28.082445 	 8.033914 	 2.549084 
H 	 26.805621 	 7.492754 	 1.020928 
H 	 22.835008 	 4.902428 	 2.203964 
H 	 22.648400 	 5.996093 	 1.173263 
H 	 25.192041 	 12.532600 	 499.915976 
H 	 23.753923 	 12.437130 	 0.499119 
H 	 30.954134 	 1.707330 	 6.969424 
H 	 30.351585 	 2.941208 	 6.727271 
H 	 32.247669 	 6.745267 	 3.029367 
H 	 33.476630 	 7.592008 	 3.554051 
H 	 30.611874 	 3.706745 	 2.346050 
H 	 29.553099 	 2.668622 	 2.593536 
H 	 28.784789 	 8.443518 	 7.824782 
H 	 28.411119 	 9.557452 	 6.738102 
H 	 32.908594 	 0.965060 	 495.464071 
H 	 31.624431 	 15.051435 	 496.072591 
H 	 20.984273 	 11.307556 	 4.805115 
H 	 22.481514 	 10.953713 	 5.137780 
H 	 30.958895 	 14.018484 	 4.828635 
H 	 31.127753 	 15.061316 	 3.616524 
H 	 30.465531 	 11.589525 	 6.045720 
H 	 31.055652 	 12.786994 	 6.885172 
H 	 29.564789 	 6.578974 	 6.310136 
H 	 29.066189 	 5.880781 	 7.625579 
H 	 26.451121 	 2.545175 	 498.908869 
H 	 27.090904 	 1.269423 	 498.439435 
H 	 30.429169 	 5.284586 	 497.325794 
H 	 29.543017 	 4.586012 	 498.464264 
H 	 19.324797 	 15.105919 	 4.592078 
H 	 32.962299 	 0.667471 	 5.068078 
H 	 25.927711 	 3.450533 	 5.984866 
H 	 26.323135 	 3.431009 	 4.440898 
H 	 25.019944 	 14.679511 	 5.310035 
H 	 25.184945 	 13.429363 	 6.203104 
H 	 26.080032 	 6.281067 	 498.609488 
H 	 27.525386 	 6.281957 	 499.380923 
H 	 27.945150 	 14.483803 	 499.361702 
H 	 27.308895 	 13.642363 	 498.315608 
H 	 22.587321 	 6.228268 	 498.505709 
H 	 21.421730 	 7.162883 	 498.588418 
H 	 21.373683 	 14.884819 	 5.344788 
H 	 22.363893 	 13.834631 	 4.849658 
H 	 25.964363 	 9.688259 	 2.884292 
H 	 26.473755 	 11.196923 	 3.219242 
H 	 24.293595 	 15.230381 	 0.887590 
H 	 24.970575 	 1.599135 	 1.207634 
H 	 33.904188 	 2.903783 	 9.036298 
H 	 20.395807 	 2.721197 	 494.928359 
H 	 24.653316 	 8.130696 	 8.641953 
H 	 23.333583 	 7.777126 	 494.477780 
H 	 30.476702 	 11.418076 	 496.126550 
H 	 30.236852 	 11.746480 	 497.617764 
H 	 25.115283 	 8.797096 	 497.333448 
H 	 24.117078 	 9.048596 	 498.514849 
H 	 25.335250 	 11.579615 	 497.339736 
H 	 23.995722 	 11.215957 	 496.684057 
H 	 31.685753 	 6.813274 	 0.488990 
H 	 30.748600 	 7.888062 	 499.867043 
H 	 32.403252 	 9.180679 	 4.246382 
H 	 32.106750 	 9.850263 	 5.581694 
H 	 21.472659 	 2.823090 	 499.547770 
H 	 20.836392 	 1.564034 	 0.411205 
H 	 27.804681 	 11.328692 	 499.268918 
H 	 27.511020 	 10.579028 	 497.877855 
H 	 25.968830 	 5.369545 	 3.263069 
H 	 27.213517 	 4.702311 	 2.605177 
H 	 19.942996 	 6.643421 	 7.681713 
H 	 33.823314 	 7.289762 	 8.643707 
H 	 24.473577 	 5.654783 	 497.536960 
H 	 24.422665 	 4.798285 	 498.771370 
H 	 25.089904 	 13.252721 	 9.099234 
H 	 25.685306 	 13.259476 	 495.583747 
H 	 21.618445 	 8.468089 	 495.698312 
H 	 22.991667 	 8.900257 	 496.215317 
H 	 19.502491 	 5.979912 	 0.690447 
H 	 33.605133 	 4.835556 	 499.947180 
H 	 29.895598 	 0.896863 	 496.507415 
H 	 29.739979 	 14.209665 	 496.561178 
H 	 32.777353 	 4.656528 	 3.260588 
H 	 32.557333 	 4.863633 	 1.689899 
H 	 33.333442 	 1.695720 	 1.889702 
H 	 33.214491 	 15.169780 	 2.438411 
H 	 19.612475 	 5.336666 	 5.002248 
H 	 33.643088 	 4.534657 	 6.003410 
H 	 28.734459 	 10.293758 	 1.647581 
H 	 27.438280 	 9.649612 	 1.015907 
H 	 31.513948 	 2.664468 	 0.481239 
H 	 32.632128 	 2.442988 	 499.482530 
H 	 31.955356 	 9.647271 	 496.006497 
H 	 32.668437 	 9.925083 	 497.445416 
H 	 25.327046 	 11.030133 	 8.043946 
H 	 23.946701 	 11.759027 	 8.251431 
H 	 21.271704 	 3.516768 	 2.976762 
H 	 20.967943 	 3.481274 	 1.483520 
H 	 32.909649 	 10.603703 	 499.817606 
H 	 33.729313 	 11.585118 	 498.956711 
H 	 30.077855 	 0.742920 	 499.287427 
H 	 29.379981 	 1.199399 	 0.708106 
H 	 33.130561 	 2.156307 	 497.136836 
H 	 32.029946 	 3.075770 	 496.515204 
H 	 29.705173 	 5.852229 	 0.377511 
H 	 29.099925 	 4.468612 	 0.679364 
H 	 24.769441 	 4.540785 	 7.802410 
H 	 25.521189 	 5.718589 	 7.106536 
H 	 26.456294 	 2.818439 	 495.375762 
H 	 26.896002 	 3.253014 	 496.786608 
H 	 25.907822 	 9.923665 	 495.315175 
H 	 26.987337 	 9.550973 	 9.058489 
H 	 25.452884 	 14.779315 	 498.329639 
H 	 25.241340 	 14.892295 	 496.820221 
H 	 27.075709 	 8.228725 	 497.737758 
H 	 27.687364 	 8.597305 	 496.387588 
H 	 24.432559 	 3.945472 	 0.672482 
H 	 25.526189 	 3.899065 	 1.719572 
H 	 29.499125 	 7.422133 	 2.432427 
H 	 25.826354 	 7.284641 	 5.135293 
H 	 22.590015 	 14.585564 	 496.988371 
H 	 21.844665 	 13.308426 	 497.354272 
H 	 33.584696 	 15.209082 	 498.870277 
H 	 32.531302 	 14.589653 	 498.027640 
H 	 31.779255 	 6.592698 	 494.989540 
H 	 30.974568 	 6.913431 	 8.702952 
H 	 27.479626 	 13.252214 	 3.766123 
H 	 27.323377 	 13.566304 	 2.229368 
H 	 26.701649 	 7.973748 	 6.263783 
O 	 20.968943 	 13.163284 	 2.247893 
O 	 32.746701 	 9.463944 	 7.058214 
O 	 22.578168 	 12.354538 	 9.186486 
O 	 33.927324 	 13.326082 	 0.366135 
O 	 21.931541 	 11.417079 	 497.170777 
O 	 19.930637 	 10.821483 	 495.211223 
O 	 24.298259 	 9.288037 	 0.649506 
O 	 21.886166 	 4.628078 	 495.131703 
O 	 24.156879 	 10.540304 	 5.384411 
O 	 23.233288 	 2.083571 	 496.154779 
O 	 31.475738 	 14.101339 	 1.696037 
O 	 24.586951 	 5.391946 	 495.835330 
O 	 30.157090 	 2.592706 	 495.918091 
O 	 19.992092 	 4.983415 	 497.313027 
O 	 28.007523 	 13.358832 	 5.934986 
O 	 19.919752 	 13.503712 	 495.321351 
O 	 30.740385 	 10.494677 	 494.507773 
O 	 22.433052 	 7.615442 	 6.235375 
O 	 25.257264 	 6.835566 	 3.401207 
O 	 28.488835 	 5.925479 	 4.682777 
O 	 25.901174 	 15.437248 	 3.756876 
O 	 29.754897 	 3.231582 	 4.687731 
O 	 20.213617 	 10.274644 	 1.890305 
O 	 22.579406 	 14.430403 	 0.221087 
O 	 29.661888 	 9.084711 	 498.869901 
O 	 28.730115 	 14.033544 	 494.761798 
O 	 25.965465 	 1.620263 	 9.038285 
O 	 28.598228 	 0.840359 	 3.076331 
O 	 20.962949 	 2.221078 	 6.757423 
O 	 20.052905 	 7.306977 	 4.631135 
O 	 31.766118 	 12.843568 	 8.550702 
O 	 20.331948 	 7.790178 	 496.382523 
O 	 34.045250 	 12.111375 	 4.421415 
O 	 21.272238 	 5.106418 	 7.307163 
O 	 21.344767 	 9.383640 	 499.360287 
O 	 32.285709 	 9.988937 	 1.456652 
O 	 22.376332 	 8.732538 	 3.107769 
O 	 28.860892 	 10.039086 	 5.296540 
O 	 28.723033 	 7.044494 	 495.724944 
O 	 32.739790 	 4.401158 	 8.092815 
O 	 27.562312 	 1.377454 	 6.783928 
O 	 31.887128 	 6.616363 	 497.221067 
O 	 23.236832 	 2.992192 	 498.728889 
O 	 19.444417 	 13.065089 	 7.261068 
O 	 28.297392 	 4.811347 	 8.822039 
O 	 29.979770 	 11.537374 	 2.760368 
O 	 22.700959 	 15.081180 	 7.636910 
O 	 23.689480 	 2.943791 	 7.977955 
O 	 26.639329 	 8.112825 	 1.752053 
O 	 23.394109 	 5.468256 	 1.541683 
O 	 24.452288 	 11.909311 	 0.038742 
O 	 30.388464 	 2.287871 	 7.493599 
O 	 32.601604 	 7.646415 	 3.108348 
O 	 29.888337 	 3.192123 	 1.820887 
O 	 28.450887 	 9.391144 	 7.788547 
O 	 32.311117 	 15.114890 	 495.331664 
O 	 21.558958 	 10.775730 	 5.420289 
O 	 30.906657 	 14.986521 	 4.584924 
O 	 30.679611 	 12.544710 	 5.989655 
O 	 29.512072 	 6.714322 	 7.262498 
O 	 27.236497 	 2.242832 	 498.346007 
O 	 29.785666 	 4.623051 	 497.499712 
O 	 33.884417 	 15.410985 	 5.448769 
O 	 26.124711 	 2.875719 	 5.215419 
O 	 24.522339 	 14.002207 	 5.808006 
O 	 26.904963 	 6.839665 	 498.817806 
O 	 27.076259 	 14.092521 	 499.139716 
O 	 21.695327 	 6.273032 	 498.904658 
O 	 21.714653 	 14.485099 	 4.512498 
O 	 26.111796 	 10.345155 	 3.626561 
O 	 25.150638 	 15.538460 	 1.215398 
O 	 19.763467 	 2.309383 	 9.172080 
O 	 23.961198 	 7.409670 	 8.699531 
O 	 30.592595 	 12.173352 	 496.770895 
O 	 24.205200 	 9.147019 	 497.543898 
O 	 24.725503 	 11.855940 	 496.623037 
O 	 30.824278 	 7.200125 	 0.595568 
O 	 31.867202 	 9.917350 	 4.583784 
O 	 20.677846 	 2.454938 	 0.006452 
O 	 27.725238 	 11.452878 	 498.298076 
O 	 26.353357 	 4.485056 	 3.014112 
O 	 19.525969 	 7.517538 	 7.886874 
O 	 24.423166 	 5.728423 	 498.521205 
O 	 25.475118 	 13.915052 	 494.869016 
O 	 22.476717 	 8.883103 	 495.375216 
O 	 33.590927 	 5.792030 	 0.195674 
O 	 30.169952 	 15.003040 	 496.965272 
O 	 32.103910 	 4.824930 	 2.571026 
O 	 33.719829 	 1.093398 	 2.591089 
O 	 33.804008 	 4.672418 	 5.060213 
O 	 28.104547 	 10.367507 	 0.864295 
O 	 32.501809 	 2.821769 	 0.358297 
O 	 32.676678 	 9.364360 	 496.595757 
O 	 24.807359 	 11.875029 	 7.868480 
O 	 21.141729 	 4.127948 	 2.248785 
O 	 33.295859 	 10.699045 	 498.902649 
O 	 29.710433 	 15.376455 	 0.138911 
O 	 32.950876 	 3.057930 	 496.878998 
O 	 29.011331 	 5.203038 	 0.047460 
O 	 25.635446 	 4.833829 	 7.388204 
O 	 26.669225 	 3.623940 	 495.915173 
O 	 26.040146 	 9.671344 	 494.375096 
O 	 24.792190 	 15.027482 	 497.666619 
O 	 27.105754 	 9.007655 	 497.070904 
O 	 25.129777 	 3.367958 	 0.942093 
O 	 28.987162 	 7.965240 	 3.082138 
O 	 21.695519 	 14.281621 	 497.294415 
O 	 32.949690 	 15.480184 	 498.184654 
O 	 31.876189 	 6.839305 	 8.972263 
O 	 27.497930 	 12.862731 	 2.901367 
O 	 26.356876 	 7.099674 	 5.943353 
K 	 21.146808 	 9.890000 	 7.799787 
