333
conformation = 1
H 	 988.389857 	 2.599800 	 994.608873 
H 	 989.135303 	 3.939897 	 995.296716 
H 	 0.000000 	 0.000000 	 0.000000 
H 	 0.768217 	 998.786269 	 999.536112 
H 	 990.851111 	 2.792002 	 987.411896 
H 	 990.552321 	 3.472756 	 0.917112 
H 	 0.960426 	 3.625611 	 993.024284 
H 	 987.540093 	 3.696664 	 993.351865 
H 	 989.615235 	 1.096746 	 990.162876 
H 	 989.202039 	 1.511451 	 988.689798 
H 	 987.157152 	 0.773212 	 988.040945 
H 	 987.655363 	 2.073431 	 987.413257 
H 	 993.054949 	 999.051792 	 993.003371 
H 	 992.394796 	 0.512230 	 992.717297 
H 	 989.177616 	 995.192381 	 988.082897 
H 	 990.685699 	 995.151362 	 987.616147 
H 	 992.826354 	 0.788030 	 996.970717 
H 	 992.417607 	 1.410051 	 998.255227 
H 	 990.728181 	 992.951747 	 987.717702 
H 	 991.967300 	 992.080599 	 988.007985 
H 	 998.981396 	 3.559931 	 994.318304 
H 	 998.666440 	 4.726564 	 993.338222 
H 	 993.140889 	 994.906275 	 987.996118 
H 	 992.657623 	 996.261503 	 987.312406 
H 	 997.946414 	 993.000483 	 987.204718 
H 	 997.690266 	 993.646891 	 988.720350 
H 	 987.283668 	 994.462216 	 989.474735 
H 	 988.322873 	 995.367155 	 990.407791 
H 	 996.835573 	 3.550481 	 998.441778 
H 	 995.580261 	 4.483955 	 998.459822 
H 	 1.813122 	 4.025174 	 987.659732 
H 	 988.286220 	 4.109140 	 988.344551 
H 	 998.972631 	 1.593266 	 1.280963 
H 	 997.866193 	 0.344862 	 1.185189 
H 	 990.999491 	 997.746796 	 999.165268 
H 	 989.731860 	 997.137671 	 998.563527 
H 	 993.759016 	 997.653021 	 995.028518 
H 	 992.357677 	 997.016950 	 995.145671 
H 	 995.595326 	 996.574055 	 997.373633 
H 	 996.655471 	 996.992938 	 996.282212 
H 	 993.261129 	 5.765920 	 995.162248 
H 	 993.585412 	 991.565332 	 996.580562 
H 	 997.004571 	 994.248268 	 996.917953 
H 	 997.128459 	 992.751539 	 996.710417 
H 	 988.630747 	 0.155073 	 994.814923 
H 	 987.157551 	 0.532800 	 994.251973 
H 	 990.103442 	 4.600931 	 991.567465 
H 	 989.861531 	 4.209440 	 993.023381 
H 	 997.395483 	 999.672080 	 990.198260 
H 	 996.910809 	 999.730123 	 991.681792 
H 	 996.881648 	 3.324194 	 987.079738 
H 	 995.651432 	 4.196998 	 986.930500 
H 	 994.472023 	 991.726929 	 0.477485 
H 	 993.574206 	 990.953579 	 986.676293 
H 	 997.037623 	 5.421849 	 995.918794 
H 	 995.559882 	 5.803382 	 995.537142 
H 	 988.250579 	 992.170502 	 998.280950 
H 	 988.236445 	 992.543104 	 999.786580 
H 	 988.514311 	 997.798527 	 996.074371 
H 	 988.211702 	 998.241649 	 997.504615 
H 	 999.684162 	 3.951325 	 1.228142 
H 	 0.573129 	 2.844547 	 0.513133 
H 	 988.086279 	 997.100106 	 988.533295 
H 	 987.350219 	 998.550991 	 988.475039 
H 	 1.610840 	 2.615843 	 997.548917 
H 	 1.301886 	 1.667635 	 996.421901 
H 	 989.323925 	 994.461194 	 999.212585 
H 	 989.580711 	 995.258370 	 0.449707 
H 	 989.954140 	 999.661134 	 992.299164 
H 	 988.432567 	 0.045941 	 992.042916 
H 	 0.056112 	 999.320070 	 993.946917 
H 	 999.433788 	 0.688087 	 994.175672 
H 	 990.649820 	 999.227101 	 996.224517 
H 	 991.047353 	 999.191069 	 994.732163 
H 	 995.974859 	 0.282902 	 996.972659 
H 	 997.488329 	 999.837969 	 997.096869 
H 	 996.226408 	 996.951658 	 988.837641 
H 	 996.356548 	 996.637890 	 987.280167 
H 	 0.390489 	 995.631802 	 0.522847 
H 	 999.753702 	 994.263742 	 0.367720 
H 	 995.028835 	 992.094065 	 998.286770 
H 	 996.273477 	 992.160000 	 999.310733 
H 	 999.889493 	 997.815422 	 989.518732 
H 	 0.661505 	 996.479232 	 989.753935 
H 	 990.899149 	 993.303830 	 990.025818 
H 	 991.602851 	 992.415222 	 991.071901 
H 	 987.790322 	 3.684933 	 0.277447 
H 	 987.266498 	 4.138474 	 998.944969 
H 	 996.164113 	 994.440881 	 986.936249 
H 	 995.313746 	 994.976989 	 0.658372 
H 	 998.149027 	 1.502319 	 995.905122 
H 	 997.085975 	 2.304524 	 995.249980 
H 	 989.753444 	 990.939004 	 999.729890 
H 	 991.145094 	 5.148972 	 999.027111 
H 	 992.271530 	 992.717387 	 0.748035 
H 	 991.083139 	 992.615699 	 999.665834 
H 	 995.982154 	 998.300085 	 994.785024 
H 	 994.705330 	 997.758925 	 993.256868 
H 	 990.734718 	 995.168599 	 994.439904 
H 	 990.548110 	 996.262264 	 993.409203 
H 	 993.091750 	 2.798771 	 992.151916 
H 	 991.653633 	 2.703302 	 992.735059 
H 	 998.853843 	 991.973501 	 999.205364 
H 	 998.251294 	 993.207379 	 998.963210 
H 	 0.147379 	 997.011439 	 995.265307 
H 	 1.376340 	 997.858179 	 995.789991 
H 	 998.511583 	 993.972917 	 994.581989 
H 	 997.452809 	 992.934794 	 994.829475 
H 	 996.684499 	 998.709689 	 0.060722 
H 	 996.310829 	 999.823624 	 998.974041 
H 	 0.808303 	 991.231231 	 987.700011 
H 	 999.524141 	 5.317606 	 988.308530 
H 	 988.883983 	 1.573727 	 997.041055 
H 	 990.381224 	 1.219884 	 997.373720 
H 	 998.858604 	 4.284655 	 997.064575 
H 	 999.027462 	 5.327487 	 995.852464 
H 	 998.365240 	 1.855696 	 998.281660 
H 	 998.955361 	 3.053165 	 999.121111 
H 	 997.464499 	 996.845145 	 998.546076 
H 	 996.965898 	 996.146952 	 999.861519 
H 	 994.350831 	 992.811346 	 991.144809 
H 	 994.990614 	 991.535594 	 990.675374 
H 	 998.328879 	 995.550757 	 989.561734 
H 	 997.442726 	 994.852183 	 990.700204 
H 	 987.224507 	 5.372090 	 996.828017 
H 	 0.862008 	 990.933642 	 997.304018 
H 	 993.827421 	 993.716704 	 998.220806 
H 	 994.222845 	 993.697180 	 996.676837 
H 	 992.919654 	 4.945682 	 997.545975 
H 	 993.084655 	 3.695534 	 998.439044 
H 	 993.979742 	 996.547238 	 990.845428 
H 	 995.425095 	 996.548128 	 991.616863 
H 	 995.844860 	 4.749974 	 991.597642 
H 	 995.208605 	 3.908534 	 990.551548 
H 	 990.487031 	 996.494439 	 990.741649 
H 	 989.321440 	 997.429054 	 990.824358 
H 	 989.273393 	 5.150990 	 997.580728 
H 	 990.263602 	 4.100802 	 997.085598 
H 	 993.864073 	 999.954430 	 995.120232 
H 	 994.373465 	 1.463094 	 995.455182 
H 	 992.193305 	 5.496552 	 993.123529 
H 	 992.870284 	 991.865306 	 993.443573 
H 	 1.803898 	 993.169954 	 1.272238 
H 	 988.295516 	 992.987368 	 987.164299 
H 	 992.553026 	 998.396867 	 0.877893 
H 	 991.233293 	 998.043297 	 986.713720 
H 	 998.376412 	 1.684247 	 988.362490 
H 	 998.136561 	 2.012651 	 989.853704 
H 	 993.014993 	 999.063267 	 989.569388 
H 	 992.016788 	 999.314767 	 990.750789 
H 	 993.234960 	 1.845786 	 989.575676 
H 	 991.895432 	 1.482128 	 988.919997 
H 	 999.585462 	 997.079445 	 992.724929 
H 	 998.648309 	 998.154233 	 992.102983 
H 	 0.302962 	 999.446850 	 996.482322 
H 	 0.006460 	 0.116434 	 997.817634 
H 	 989.372368 	 993.089261 	 991.783710 
H 	 988.736102 	 991.830205 	 992.647144 
H 	 995.704391 	 1.594863 	 991.504858 
H 	 995.410730 	 0.845199 	 990.113794 
H 	 993.868540 	 995.635716 	 995.499009 
H 	 995.113227 	 994.968483 	 994.841117 
H 	 987.842706 	 996.909592 	 999.917653 
H 	 1.723024 	 997.555933 	 0.879647 
H 	 992.373286 	 995.920954 	 989.772899 
H 	 992.322375 	 995.064456 	 991.007310 
H 	 992.989613 	 3.518892 	 1.335173 
H 	 993.585016 	 3.525647 	 987.819687 
H 	 989.518155 	 998.734261 	 987.934252 
H 	 990.891376 	 999.166428 	 988.451256 
H 	 987.402201 	 996.246083 	 992.926387 
H 	 1.504843 	 995.101727 	 992.183120 
H 	 997.795308 	 991.163034 	 988.743355 
H 	 997.639688 	 4.475836 	 988.797118 
H 	 0.677062 	 994.922699 	 995.496528 
H 	 0.457043 	 995.129804 	 993.925839 
H 	 1.233151 	 991.961891 	 994.125642 
H 	 1.114201 	 5.435951 	 994.674351 
H 	 987.512185 	 995.602837 	 997.238188 
H 	 1.542797 	 994.800828 	 998.239350 
H 	 996.634169 	 0.559929 	 993.883520 
H 	 995.337989 	 999.915783 	 993.251847 
H 	 999.413657 	 992.930639 	 992.717179 
H 	 0.531837 	 992.709159 	 991.718470 
H 	 999.855066 	 999.913442 	 988.242436 
H 	 0.568147 	 0.191254 	 989.681356 
H 	 993.226755 	 1.296304 	 0.279886 
H 	 991.846410 	 2.025198 	 0.487371 
H 	 989.171414 	 993.782939 	 995.212702 
H 	 988.867652 	 993.747445 	 993.719459 
H 	 0.809359 	 0.869874 	 992.053546 
H 	 1.629022 	 1.851289 	 991.192651 
H 	 997.977565 	 991.009091 	 991.523366 
H 	 997.279691 	 991.465570 	 992.944046 
H 	 1.030270 	 992.422478 	 989.372776 
H 	 999.929656 	 993.341941 	 988.751143 
H 	 997.604882 	 996.118400 	 992.613450 
H 	 996.999635 	 994.734783 	 992.915304 
H 	 992.669150 	 994.806956 	 0.038350 
H 	 993.420899 	 995.984760 	 999.342475 
H 	 994.356004 	 993.084610 	 987.611702 
H 	 994.795712 	 993.519185 	 989.022548 
H 	 993.807531 	 0.189836 	 987.551115 
H 	 994.887047 	 999.817144 	 1.294429 
H 	 993.352593 	 5.045486 	 990.565579 
H 	 993.141049 	 5.158466 	 989.056160 
H 	 994.975419 	 998.494896 	 989.973698 
H 	 995.587073 	 998.863476 	 988.623528 
H 	 992.332269 	 994.211643 	 992.908422 
H 	 993.425899 	 994.165236 	 993.955511 
H 	 997.398834 	 997.688304 	 994.668367 
H 	 993.726064 	 997.550812 	 997.371233 
H 	 990.489725 	 4.851735 	 989.224311 
H 	 989.744374 	 3.574597 	 989.590212 
H 	 1.484406 	 5.475254 	 991.106217 
H 	 0.431012 	 4.855824 	 990.263579 
H 	 999.678965 	 996.858869 	 987.225480 
H 	 998.874278 	 997.179602 	 0.938892 
H 	 995.379336 	 3.518385 	 996.002063 
H 	 995.223086 	 3.832475 	 994.465308 
H 	 994.601359 	 998.239919 	 998.499723 
O 	 988.868652 	 3.429455 	 994.483833 
O 	 0.646411 	 999.730115 	 999.294154 
O 	 990.477878 	 2.620709 	 1.422426 
O 	 1.827033 	 3.592253 	 992.602075 
O 	 989.831250 	 1.683251 	 989.406716 
O 	 987.830346 	 1.087654 	 987.447163 
O 	 992.197969 	 999.554208 	 992.885446 
O 	 989.785875 	 994.894249 	 987.367642 
O 	 992.056588 	 0.806475 	 997.620351 
O 	 991.132998 	 992.349742 	 988.390719 
O 	 999.375447 	 4.367510 	 993.931977 
O 	 992.486661 	 995.658117 	 988.071270 
O 	 998.056800 	 992.858877 	 988.154031 
O 	 987.891801 	 995.249586 	 989.548967 
O 	 995.907233 	 3.625003 	 998.170925 
O 	 987.819462 	 3.769883 	 987.557291 
O 	 998.640095 	 0.760848 	 986.743713 
O 	 990.332762 	 997.881613 	 998.471314 
O 	 993.156973 	 997.101737 	 995.637147 
O 	 996.388544 	 996.191650 	 996.918717 
O 	 993.800883 	 5.703419 	 995.992816 
O 	 997.654607 	 993.497753 	 996.923670 
O 	 988.113326 	 0.540815 	 994.126245 
O 	 990.479115 	 4.696574 	 992.457027 
O 	 997.561598 	 999.350882 	 991.105841 
O 	 996.629825 	 4.299715 	 986.997738 
O 	 993.865174 	 991.886434 	 1.274225 
O 	 996.497938 	 991.106530 	 995.312271 
O 	 988.862658 	 992.487249 	 998.993363 
O 	 987.952615 	 997.573148 	 996.867075 
O 	 999.665827 	 3.109740 	 0.786642 
O 	 988.231658 	 998.056349 	 988.618463 
O 	 1.944959 	 2.377547 	 996.657355 
O 	 989.171948 	 995.372589 	 999.543103 
O 	 989.244477 	 999.649811 	 991.596227 
O 	 0.185419 	 0.255108 	 993.692592 
O 	 990.276042 	 998.998709 	 995.343709 
O 	 996.760602 	 0.305257 	 997.532480 
O 	 996.622743 	 997.310665 	 987.960884 
O 	 0.639500 	 994.667329 	 0.328755 
O 	 995.462022 	 991.643625 	 999.019867 
O 	 999.786838 	 996.882535 	 989.457006 
O 	 991.136542 	 993.258363 	 990.964829 
O 	 987.344127 	 3.331260 	 999.497008 
O 	 996.197102 	 995.077518 	 1.057979 
O 	 997.879479 	 1.803545 	 994.996308 
O 	 990.600669 	 5.347351 	 999.872850 
O 	 991.589189 	 993.209962 	 0.213895 
O 	 994.539039 	 998.378996 	 993.987993 
O 	 991.293819 	 995.734427 	 993.777623 
O 	 992.351998 	 2.175482 	 992.274682 
O 	 998.288173 	 992.554042 	 999.729539 
O 	 0.501314 	 997.912586 	 995.344288 
O 	 997.788047 	 993.458294 	 994.056827 
O 	 996.350597 	 999.657315 	 0.024487 
O 	 0.210826 	 5.381061 	 987.567604 
O 	 989.458667 	 1.041901 	 997.656229 
O 	 998.806367 	 5.252692 	 996.820864 
O 	 998.579321 	 2.810881 	 998.225595 
O 	 997.411782 	 996.980493 	 999.498437 
O 	 995.136207 	 992.509003 	 990.581947 
O 	 997.685376 	 994.889222 	 989.735652 
O 	 1.784126 	 5.677156 	 997.684709 
O 	 994.024421 	 993.141890 	 997.451359 
O 	 992.422049 	 4.268378 	 998.043946 
O 	 994.804672 	 997.105836 	 991.053745 
O 	 994.975969 	 4.358692 	 991.375655 
O 	 989.595037 	 996.539203 	 991.140597 
O 	 989.614362 	 4.751270 	 996.748438 
O 	 994.011505 	 0.611326 	 995.862501 
O 	 993.050347 	 5.804631 	 993.451338 
O 	 987.663177 	 992.575554 	 1.408020 
O 	 991.860908 	 997.675842 	 0.935471 
O 	 998.492305 	 2.439523 	 989.006835 
O 	 992.104910 	 999.413190 	 989.779838 
O 	 992.625213 	 2.122111 	 988.858976 
O 	 998.723987 	 997.466296 	 992.831507 
O 	 999.766911 	 0.183521 	 996.819724 
O 	 988.577555 	 992.721109 	 992.242392 
O 	 995.624947 	 1.719049 	 990.534016 
O 	 994.253067 	 994.751227 	 995.250052 
O 	 987.425679 	 997.783709 	 0.122813 
O 	 992.322876 	 995.994594 	 990.757145 
O 	 993.374828 	 4.181223 	 987.104955 
O 	 990.376427 	 999.149275 	 987.611156 
O 	 1.490637 	 996.058201 	 992.431613 
O 	 998.069662 	 5.269211 	 989.201212 
O 	 0.003620 	 995.091101 	 994.806966 
O 	 1.619539 	 991.359569 	 994.827029 
O 	 1.703717 	 994.938589 	 997.296153 
O 	 996.004256 	 0.633679 	 993.100235 
O 	 0.401519 	 993.087940 	 992.594237 
O 	 0.576388 	 999.630531 	 988.831697 
O 	 992.707068 	 2.141200 	 0.104420 
O 	 989.041439 	 994.394119 	 994.484724 
O 	 1.195569 	 0.965216 	 991.138589 
O 	 997.610143 	 5.642626 	 992.374851 
O 	 0.850585 	 993.324101 	 989.114938 
O 	 996.911041 	 995.469209 	 992.283399 
O 	 993.535156 	 995.100000 	 999.624144 
O 	 994.568934 	 993.890111 	 988.151113 
O 	 993.939856 	 999.937515 	 986.611035 
O 	 992.691900 	 5.293653 	 989.902559 
O 	 995.005463 	 999.273826 	 989.306844 
O 	 993.029486 	 993.634129 	 993.178033 
O 	 996.886872 	 998.231411 	 995.318078 
O 	 989.595228 	 4.547792 	 989.530355 
O 	 0.849399 	 5.746355 	 990.420594 
O 	 999.775899 	 997.105476 	 1.208203 
O 	 995.397640 	 3.128902 	 995.137307 
O 	 994.256586 	 997.365845 	 998.179293 
K 	 989.046517 	 0.156171 	 0.035726 
