333
conformation = 9
H 	 -2.979319 	 6.821624 	 -4.254078 
H 	 -2.398831 	 -6.781101 	 -3.655864 
H 	 -6.351037 	 4.180961 	 0.971173 
H 	 -5.348122 	 3.047426 	 0.453155 
H 	 -0.619173 	 7.053446 	 3.298924 
H 	 -0.979694 	 -7.114008 	 2.018193 
H 	 -5.363502 	 -7.101568 	 -5.846238 
H 	 -3.800514 	 -6.954275 	 -5.742108 
H 	 -1.848556 	 5.357378 	 6.084266 
H 	 -2.360454 	 5.740409 	 4.668041 
H 	 -4.301278 	 4.975975 	 3.980741 
H 	 -3.803396 	 6.313001 	 3.432861 
H 	 1.565183 	 3.275056 	 -5.927675 
H 	 1.049107 	 4.683561 	 -6.189361 
H 	 -2.315967 	 -0.745462 	 4.001855 
H 	 -0.756886 	 -0.448296 	 3.514881 
H 	 1.328460 	 5.063426 	 -2.018918 
H 	 0.886951 	 5.795224 	 -0.724519 
H 	 -0.775531 	 -2.775048 	 3.672860 
H 	 0.543782 	 -3.641997 	 3.924566 
H 	 -7.449653 	 -7.098639 	 -4.644202 
H 	 7.131563 	 -5.918515 	 -5.568711 
H 	 1.692407 	 -0.855590 	 3.980412 
H 	 1.111623 	 0.491349 	 3.184508 
H 	 6.426014 	 -2.699357 	 3.101689 
H 	 6.260689 	 -2.199483 	 4.620795 
H 	 -4.149955 	 -1.252300 	 5.438651 
H 	 -3.126632 	 -0.193549 	 6.318747 
H 	 5.400657 	 -7.126876 	 -0.627229 
H 	 4.173084 	 -6.159944 	 -0.441735 
H 	 -4.562771 	 -6.453589 	 3.552696 
H 	 -3.211375 	 -6.534959 	 4.312203 
H 	 -7.474132 	 5.868532 	 2.205595 
H 	 6.438960 	 4.575181 	 2.146311 
H 	 -0.392547 	 2.059633 	 0.131708 
H 	 -1.698859 	 1.367051 	 -0.397626 
H 	 2.248120 	 1.919593 	 -4.036050 
H 	 0.847646 	 1.139692 	 -3.811909 
H 	 4.117653 	 0.755122 	 -1.691929 
H 	 5.215956 	 1.148785 	 -2.662136 
H 	 1.852767 	 -4.802409 	 -3.836804 
H 	 2.187127 	 -4.198619 	 -2.386174 
H 	 5.544140 	 -1.545686 	 -2.005930 
H 	 5.683210 	 -3.096951 	 -2.281357 
H 	 -2.864195 	 4.348332 	 -4.025536 
H 	 -4.294454 	 4.782871 	 -4.750846 
H 	 -1.374164 	 -6.212289 	 -7.381117 
H 	 -1.522204 	 -6.444792 	 -5.819924 
H 	 5.885245 	 3.873095 	 6.077160 
H 	 5.381475 	 3.983896 	 -7.372509 
H 	 5.353924 	 7.615927 	 3.100482 
H 	 4.197126 	 -6.367106 	 2.675241 
H 	 3.017738 	 -4.034086 	 1.508411 
H 	 2.189781 	 -4.765408 	 2.474845 
H 	 5.451557 	 -5.266131 	 -3.007981 
H 	 4.064298 	 -4.856278 	 -3.474582 
H 	 -3.135939 	 -3.619613 	 -0.746416 
H 	 -3.214446 	 -3.192164 	 0.758660 
H 	 -2.993053 	 1.985530 	 -2.973967 
H 	 -3.297547 	 2.508281 	 -1.503809 
H 	 -6.563728 	 -6.655421 	 2.289080 
H 	 -5.728405 	 7.167408 	 1.519565 
H 	 -3.360466 	 1.358890 	 4.366032 
H 	 -4.045937 	 2.717344 	 4.473479 
H 	 -4.786166 	 6.787347 	 -1.444688 
H 	 -5.077987 	 5.860411 	 -2.538206 
H 	 -2.351307 	 -1.331884 	 0.147027 
H 	 -1.935722 	 -0.511583 	 1.464522 
H 	 -1.478792 	 3.858601 	 -6.741742 
H 	 -2.896677 	 4.183916 	 -6.851574 
H 	 -6.351040 	 3.511240 	 -5.051548 
H 	 -6.953954 	 4.971497 	 -4.952815 
H 	 -0.801616 	 3.339441 	 -2.778065 
H 	 -0.463245 	 3.540129 	 -4.249999 
H 	 4.545303 	 4.565997 	 -2.060687 
H 	 5.991981 	 3.972881 	 -1.964397 
H 	 4.716197 	 1.254102 	 4.663427 
H 	 4.812324 	 0.908493 	 3.244420 
H 	 -5.868164 	 -0.174489 	 1.432652 
H 	 -6.680996 	 -1.405728 	 1.363016 
H 	 3.607283 	 -3.572311 	 -0.695905 
H 	 4.888447 	 -3.763020 	 0.342552 
H 	 -6.403896 	 2.076540 	 5.506636 
H 	 -5.731715 	 0.658993 	 5.699742 
H 	 -0.445851 	 -2.448824 	 5.884418 
H 	 0.115297 	 -3.439232 	 6.999931 
H 	 -3.657584 	 -6.879585 	 1.306289 
H 	 -4.178739 	 -6.576716 	 -0.139095 
H 	 4.662185 	 -1.226631 	 2.803462 
H 	 3.788955 	 -0.790288 	 1.714339 
H 	 6.726491 	 5.813655 	 -3.077735 
H 	 5.573774 	 6.544750 	 -3.937455 
H 	 -1.696066 	 -4.808836 	 0.817328 
H 	 -0.426818 	 -5.428713 	 0.047006 
H 	 0.828280 	 -3.107243 	 1.654005 
H 	 -0.425262 	 -3.185073 	 0.751805 
H 	 4.581950 	 2.518460 	 -4.235761 
H 	 3.250892 	 2.063049 	 -5.785460 
H 	 -0.722158 	 -0.660958 	 -4.740555 
H 	 -0.858566 	 0.499303 	 -5.624424 
H 	 1.604578 	 7.068507 	 -6.851465 
H 	 0.143998 	 6.948268 	 -6.383060 
H 	 -7.530005 	 -3.918170 	 0.299837 
H 	 6.635696 	 -2.554949 	 0.030507 
H 	 -6.316944 	 1.225915 	 -3.742649 
H 	 -5.022584 	 1.948666 	 -3.157428 
H 	 7.061238 	 -1.799534 	 -4.444861 
H 	 5.929487 	 -2.813863 	 -4.242161 
H 	 5.151441 	 2.932246 	 0.993802 
H 	 4.954738 	 4.163672 	 0.135697 
H 	 -5.505073 	 -4.541693 	 3.647884 
H 	 -6.800239 	 -5.339392 	 4.200965 
H 	 -2.543216 	 5.871864 	 -1.922353 
H 	 -1.032871 	 5.327544 	 -1.549926 
H 	 -7.597841 	 -6.384711 	 -2.054386 
H 	 -7.306607 	 -5.292194 	 -3.084936 
H 	 6.801327 	 6.143074 	 -0.788690 
H 	 -7.440897 	 7.284000 	 0.131811 
H 	 6.025642 	 1.075380 	 -0.479561 
H 	 5.519295 	 0.461109 	 0.832854 
H 	 3.090596 	 -2.785513 	 7.110692 
H 	 3.618008 	 -4.210557 	 6.560881 
H 	 6.933267 	 -0.151595 	 5.561294 
H 	 5.996704 	 -0.917717 	 6.599976 
H 	 -4.172344 	 -5.342612 	 -2.118247 
H 	 -5.533316 	 -4.938571 	 -1.411954 
H 	 2.361230 	 -1.965136 	 -0.769909 
H 	 2.831705 	 -2.002080 	 -2.293950 
H 	 1.505981 	 -5.784488 	 -1.450250 
H 	 1.637401 	 -6.972756 	 -0.427852 
H 	 2.617013 	 0.754275 	 6.724159 
H 	 4.030102 	 0.742939 	 7.352864 
H 	 4.373290 	 -5.891386 	 -7.385678 
H 	 3.729800 	 -6.815933 	 6.441101 
H 	 -0.945918 	 0.729843 	 6.690916 
H 	 -2.184337 	 1.688135 	 6.758185 
H 	 -2.148619 	 -5.481849 	 -1.454426 
H 	 -1.235562 	 -6.610831 	 -1.886172 
H 	 2.341871 	 4.181929 	 -3.791842 
H 	 2.934068 	 5.630620 	 -3.549208 
H 	 0.789101 	 -5.280504 	 -5.894823 
H 	 1.460027 	 -3.855072 	 -5.560295 
H 	 -4.507872 	 -2.513837 	 2.344522 
H 	 -3.219982 	 -2.747992 	 2.991952 
H 	 1.048878 	 2.634610 	 1.926323 
H 	 -0.226707 	 2.266356 	 2.653219 
H 	 6.966989 	 5.916790 	 4.335407 
H 	 6.731095 	 6.370437 	 5.759589 
H 	 1.585458 	 3.407287 	 5.594829 
H 	 0.514664 	 3.646061 	 6.643812 
H 	 1.703964 	 5.974705 	 5.477508 
H 	 0.471323 	 5.651953 	 4.851550 
H 	 -6.716152 	 1.258255 	 -6.300675 
H 	 7.191278 	 2.357771 	 -6.871119 
H 	 -6.250466 	 3.591516 	 -2.533465 
H 	 -6.366656 	 4.387957 	 -1.196989 
H 	 -2.137719 	 -2.816062 	 -7.332099 
H 	 -2.711240 	 -3.844232 	 -6.277369 
H 	 4.160470 	 5.813095 	 -7.512645 
H 	 4.098274 	 5.073350 	 6.062170 
H 	 2.433696 	 -0.061538 	 -3.467245 
H 	 3.703413 	 -0.799197 	 -4.025405 
H 	 -3.547354 	 1.199367 	 0.807992 
H 	 -4.550932 	 1.834003 	 1.900143 
H 	 0.802697 	 0.075338 	 5.639745 
H 	 0.778248 	 -0.711533 	 6.937927 
H 	 1.636547 	 7.631237 	 2.452467 
H 	 2.120563 	 -6.995764 	 3.830877 
H 	 -1.859347 	 2.834507 	 3.685449 
H 	 -0.540374 	 3.254913 	 4.388204 
H 	 -3.986902 	 0.498801 	 -6.152216 
H 	 -4.793442 	 -0.628671 	 -6.738821 
H 	 6.341834 	 -4.497681 	 4.696811 
H 	 6.190185 	 -6.155686 	 4.729138 
H 	 -5.581651 	 -0.721980 	 -3.506651 
H 	 -5.711947 	 -0.565494 	 -4.935980 
H 	 -5.210675 	 -3.804525 	 -4.821584 
H 	 -5.152884 	 -5.232479 	 -4.203094 
H 	 -4.008097 	 -0.114373 	 -1.716652 
H 	 -4.866021 	 -0.809035 	 -0.715129 
H 	 5.257686 	 4.871172 	 -5.228011 
H 	 3.870568 	 4.220382 	 -5.503692 
H 	 -6.918132 	 -2.851784 	 -6.227715 
H 	 -5.759435 	 -2.912311 	 -7.273962 
H 	 -6.502671 	 4.150259 	 4.190160 
H 	 -5.725563 	 4.465154 	 5.571175 
H 	 1.769345 	 5.536714 	 1.231502 
H 	 0.309356 	 6.265414 	 1.452211 
H 	 -2.291063 	 -2.089134 	 -3.833309 
H 	 -2.696949 	 -1.889764 	 -5.255370 
H 	 -5.497761 	 5.178342 	 -6.944142 
H 	 -4.898534 	 6.164342 	 7.101103 
H 	 6.569272 	 -4.688042 	 -7.447789 
H 	 5.778300 	 -4.277398 	 -6.140870 
H 	 -5.284083 	 -3.332207 	 5.367032 
H 	 -6.405830 	 -2.443220 	 4.681925 
H 	 6.152882 	 0.342264 	 -6.428076 
H 	 5.527731 	 -1.084963 	 -6.064720 
H 	 1.234027 	 -1.002927 	 1.019681 
H 	 1.985461 	 0.302349 	 0.306930 
H 	 2.909542 	 -2.639254 	 3.496442 
H 	 3.422723 	 -2.266196 	 4.963234 
H 	 2.461088 	 4.320208 	 3.528217 
H 	 3.426881 	 4.104782 	 2.392435 
H 	 1.966464 	 -5.680892 	 6.529872 
H 	 1.710919 	 -5.552141 	 4.982273 
H 	 3.574379 	 2.796389 	 5.910018 
H 	 4.018566 	 3.084931 	 4.459862 
H 	 0.918852 	 -1.497089 	 -6.192605 
H 	 2.067426 	 -1.594094 	 -5.147881 
H 	 6.114892 	 2.144116 	 -4.363141 
H 	 2.209554 	 1.805869 	 -1.575154 
H 	 -0.977032 	 -5.778209 	 5.169344 
H 	 -1.747309 	 -7.114216 	 5.464740 
H 	 -4.866955 	 -5.240786 	 7.043671 
H 	 -6.029432 	 -5.727500 	 6.087751 
H 	 -6.628807 	 1.116615 	 3.170243 
H 	 -7.550337 	 1.408932 	 1.838187 
H 	 3.985500 	 -6.912690 	 -3.032712 
H 	 3.817168 	 -6.786199 	 -4.495315 
H 	 3.153784 	 2.418261 	 -0.399704 
O 	 -2.591306 	 7.695164 	 -4.507065 
O 	 -5.702442 	 3.984737 	 0.302972 
O 	 -0.935896 	 6.860834 	 2.372884 
O 	 -4.546528 	 -7.091912 	 -6.404313 
O 	 -1.630533 	 5.948999 	 5.321473 
O 	 -3.620690 	 5.336282 	 3.341844 
O 	 0.731634 	 3.749199 	 -6.097513 
O 	 -1.646086 	 -0.881468 	 3.276979 
O 	 0.596746 	 5.040214 	 -1.368594 
O 	 -0.335204 	 -3.385586 	 4.281107 
O 	 -6.995617 	 -6.329382 	 -5.079298 
O 	 1.041811 	 -0.114100 	 3.973325 
O 	 6.625191 	 -2.903229 	 4.057057 
O 	 -3.557301 	 -0.470532 	 5.453653 
O 	 4.436143 	 -7.015396 	 -0.857055 
O 	 -3.629320 	 -6.885796 	 3.476848 
O 	 7.191026 	 4.998723 	 2.677557 
O 	 -1.108985 	 2.145815 	 -0.539434 
O 	 1.724159 	 1.326377 	 -3.311866 
O 	 4.982960 	 0.445986 	 -2.057753 
O 	 2.303891 	 -4.992678 	 -2.953380 
O 	 6.200708 	 -2.252928 	 -2.043821 
O 	 -3.318755 	 4.769976 	 -4.856388 
O 	 -0.962235 	 -5.970686 	 -6.513948 
O 	 6.130857 	 3.583590 	 6.969073 
O 	 5.159677 	 -6.372129 	 2.912673 
O 	 2.409265 	 -3.846138 	 2.278457 
O 	 5.041365 	 -4.705952 	 -3.678417 
O 	 -2.599238 	 -3.319882 	 0.013136 
O 	 -3.530799 	 1.824837 	 -2.173528 
O 	 -6.661663 	 7.348813 	 1.813836 
O 	 -3.202162 	 2.312297 	 4.540862 
O 	 -4.452585 	 6.591294 	 -2.335893 
O 	 -2.284234 	 -0.421227 	 0.535912 
O 	 -2.184514 	 3.917423 	 -7.417629 
O 	 -6.163366 	 4.503337 	 -5.284684 
O 	 -1.166204 	 3.256338 	 -3.661988 
O 	 5.350065 	 4.569781 	 -1.477693 
O 	 5.165943 	 1.556306 	 3.873671 
O 	 -5.746762 	 -1.132960 	 1.347229 
O 	 4.051345 	 -4.133097 	 0.040142 
O 	 -6.557151 	 1.075051 	 5.374245 
O 	 -0.314960 	 -2.547558 	 6.888607 
O 	 -4.097145 	 7.595146 	 0.525582 
O 	 4.732515 	 -0.661399 	 2.037107 
O 	 6.432283 	 6.011606 	 -4.004978 
O 	 -0.848157 	 -5.284261 	 0.892310 
O 	 0.165453 	 -2.542795 	 1.227571 
O 	 3.062045 	 2.602966 	 -4.987871 
O 	 -0.148914 	 -0.033478 	 -5.191325 
O 	 0.877611 	 6.432760 	 -6.733775 
O 	 6.863111 	 -3.203107 	 0.721339 
O 	 -5.844996 	 2.126577 	 -3.646546 
O 	 6.366455 	 -2.297545 	 -4.920044 
O 	 4.920481 	 3.875091 	 1.029976 
O 	 -6.126294 	 -5.307868 	 3.477137 
O 	 -2.003211 	 5.308053 	 -1.303961 
O 	 -7.594844 	 -5.420276 	 -2.171313 
O 	 7.136411 	 7.067487 	 -0.779711 
O 	 5.984441 	 1.228401 	 0.517211 
O 	 3.682041 	 -3.245012 	 6.499746 
O 	 6.229030 	 -0.882341 	 5.637402 
O 	 -4.572924 	 -4.982696 	 -1.289224 
O 	 2.561917 	 -2.612362 	 -1.529832 
O 	 0.988756 	 -6.421625 	 -0.894980 
O 	 3.353421 	 1.323662 	 6.971495 
O 	 3.506156 	 -6.309026 	 7.278050 
O 	 -1.870678 	 0.813900 	 7.047709 
O 	 -1.831991 	 -5.918032 	 -2.233903 
O 	 2.579398 	 4.838853 	 -3.137735 
O 	 1.617052 	 -4.858751 	 -5.553049 
O 	 -3.791870 	 -3.195279 	 2.399472 
O 	 0.423055 	 1.902959 	 1.964525 
O 	 7.012668 	 6.686581 	 4.915601 
O 	 0.653666 	 3.670384 	 5.677147 
O 	 1.155679 	 6.362180 	 4.767447 
O 	 7.264066 	 1.682227 	 -6.191767 
O 	 -6.566499 	 4.440142 	 -2.126295 
O 	 -2.909589 	 -3.042089 	 -6.724115 
O 	 4.158726 	 5.967623 	 6.432779 
O 	 2.788339 	 -0.999288 	 -3.767261 
O 	 -4.039177 	 1.992810 	 1.088693 
O 	 0.856981 	 0.232924 	 6.638466 
O 	 1.898731 	 -6.499905 	 3.018171 
O 	 -1.062887 	 3.409987 	 3.525320 
O 	 -4.843768 	 0.319122 	 -6.545115 
O 	 6.634589 	 -5.378925 	 5.119772 
O 	 -6.316383 	 -0.672085 	 -4.176287 
O 	 -4.763252 	 -4.351239 	 -4.173862 
O 	 -4.673708 	 -0.840422 	 -1.711312 
O 	 4.561241 	 4.857042 	 -5.891721 
O 	 -5.996785 	 -2.613527 	 -6.362446 
O 	 -5.750230 	 3.888417 	 4.758858 
O 	 1.300326 	 6.346682 	 1.070495 
O 	 -2.386298 	 -1.360028 	 -4.492356 
O 	 -5.172750 	 5.209660 	 7.042914 
O 	 6.135843 	 -5.016367 	 -6.634142 
O 	 -5.491035 	 -2.406963 	 5.024393 
O 	 5.481457 	 -0.316257 	 -6.705132 
O 	 2.044720 	 -0.671503 	 0.632988 
O 	 3.139116 	 -1.875503 	 4.078041 
O 	 2.474299 	 4.188561 	 2.562705 
O 	 1.257009 	 -5.397807 	 5.853959 
O 	 3.533516 	 3.491853 	 5.221577 
O 	 1.588934 	 -2.136764 	 -5.793515 
O 	 5.444149 	 2.476614 	 -3.725384 
O 	 -1.848479 	 -6.113071 	 5.417419 
O 	 -5.500842 	 -4.949067 	 6.340179 
O 	 -6.589810 	 1.336901 	 2.194793 
O 	 3.966240 	 7.395796 	 -3.872743 
O 	 2.773836 	 1.612799 	 -0.782287 
K 	 -2.414560 	 4.380723 	 1.033308 
