333
conformation = 8
H 	 -4.065492 	 -4.905741 	 2.326077 
H 	 -3.385644 	 -3.570186 	 2.958160 
H 	 -7.403730 	 -7.505652 	 -7.275644 
H 	 -6.476429 	 6.245213 	 7.115574 
H 	 -1.657507 	 -4.668367 	 -4.996121 
H 	 -1.977401 	 -3.966672 	 -6.277809 
H 	 -6.431682 	 -3.904635 	 0.762507 
H 	 -4.876535 	 -3.776079 	 0.928091 
H 	 -2.877845 	 -6.361732 	 -2.191163 
H 	 -3.370595 	 -5.962888 	 -3.637743 
H 	 -5.354747 	 -6.723570 	 -4.270423 
H 	 -4.849239 	 -5.414497 	 -4.867143 
H 	 0.565883 	 6.451833 	 0.672129 
H 	 -0.020097 	 -7.014173 	 0.411378 
H 	 -3.340552 	 2.494496 	 -4.287689 
H 	 -1.800269 	 2.674448 	 -4.764728 
H 	 0.335181 	 -6.653826 	 4.614757 
H 	 -0.103745 	 -5.972591 	 5.886469 
H 	 -1.804768 	 0.397938 	 -4.602995 
H 	 -0.497070 	 -0.481026 	 -4.340550 
H 	 6.440284 	 -3.905309 	 1.971204 
H 	 6.116222 	 -2.753629 	 1.041109 
H 	 0.659645 	 2.299552 	 -4.308421 
H 	 0.104005 	 3.669934 	 -5.061609 
H 	 5.419800 	 0.458902 	 -5.146854 
H 	 5.206113 	 1.015864 	 -3.633660 
H 	 -5.174069 	 1.931043 	 -2.866540 
H 	 -4.163417 	 2.923739 	 -1.950002 
H 	 4.350734 	 -3.941317 	 6.030469 
H 	 3.098541 	 -2.961489 	 6.164836 
H 	 -5.596737 	 -3.337141 	 -4.705598 
H 	 -4.239077 	 -3.358289 	 -3.955804 
H 	 6.441407 	 -5.841964 	 -6.046639 
H 	 5.436396 	 -7.129733 	 -6.072635 
H 	 -1.425538 	 5.223770 	 6.784531 
H 	 -2.766582 	 4.558785 	 6.216119 
H 	 1.224231 	 5.093688 	 2.633799 
H 	 -0.175763 	 4.368953 	 2.792872 
H 	 3.097547 	 3.960928 	 4.957769 
H 	 4.186335 	 4.387408 	 3.933955 
H 	 0.804713 	 -1.647834 	 2.803987 
H 	 1.132192 	 -1.030934 	 4.246168 
H 	 4.485269 	 1.665490 	 4.603963 
H 	 4.633155 	 0.097504 	 4.336276 
H 	 -3.879864 	 -7.341244 	 2.542581 
H 	 -5.360793 	 -6.924716 	 1.874798 
H 	 -2.415317 	 -2.986446 	 -0.781781 
H 	 -2.583185 	 -3.266804 	 0.753933 
H 	 4.874919 	 7.069635 	 -2.171574 
H 	 4.342687 	 7.171447 	 -0.706359 
H 	 4.335799 	 -4.109220 	 -5.211684 
H 	 3.178752 	 -3.227489 	 -5.529782 
H 	 1.962936 	 -0.866310 	 -6.736645 
H 	 1.139599 	 -1.582639 	 -5.769558 
H 	 4.453036 	 -2.079656 	 3.597554 
H 	 3.069271 	 -1.689227 	 3.163157 
H 	 -4.176563 	 -0.427844 	 5.908619 
H 	 -4.271539 	 -0.013708 	 7.413172 
H 	 -4.041394 	 5.176318 	 3.687516 
H 	 -4.317198 	 5.680840 	 5.145602 
H 	 7.259485 	 -3.456425 	 -5.984353 
H 	 -6.797778 	 -4.593095 	 -6.742689 
H 	 -4.388110 	 4.529332 	 -3.886276 
H 	 -5.100278 	 5.930127 	 -3.831934 
H 	 -5.814822 	 -4.913251 	 5.177444 
H 	 -6.108592 	 -5.841192 	 4.089013 
H 	 -3.299402 	 1.863504 	 6.810509 
H 	 -2.960608 	 2.677836 	 -6.848930 
H 	 -2.550392 	 7.060108 	 -0.113406 
H 	 -3.988742 	 -7.489172 	 -0.245461 
H 	 -7.369793 	 6.766404 	 1.570541 
H 	 6.936362 	 -6.780464 	 1.723544 
H 	 -1.814754 	 6.579334 	 3.887129 
H 	 -1.463396 	 6.687538 	 2.381138 
H 	 3.492950 	 -7.165444 	 4.588265 
H 	 4.977809 	 7.198079 	 4.697929 
H 	 3.710284 	 4.434477 	 -3.615118 
H 	 3.797968 	 4.059291 	 -5.058395 
H 	 -6.947567 	 3.033252 	 -6.805985 
H 	 7.186280 	 1.753873 	 -6.895845 
H 	 2.533877 	 -0.425496 	 5.901011 
H 	 3.812753 	 -0.531257 	 6.973823 
H 	 7.440940 	 5.266673 	 -2.784477 
H 	 -6.793244 	 3.881065 	 -2.598101 
H 	 -1.523361 	 0.750452 	 -2.332873 
H 	 -0.915616 	 -0.200579 	 -1.265310 
H 	 -4.689468 	 -3.719745 	 -6.963786 
H 	 -5.209765 	 -3.367138 	 6.515840 
H 	 3.641941 	 1.910848 	 -5.449025 
H 	 2.769006 	 2.381891 	 -6.566193 
H 	 5.659600 	 -5.911337 	 3.514827 
H 	 4.539598 	 -5.158451 	 2.784714 
H 	 -2.718422 	 -1.647062 	 7.445074 
H 	 -1.427446 	 -2.271482 	 6.707806 
H 	 -0.214482 	 0.117224 	 -6.567574 
H 	 -1.444129 	 0.017530 	 7.348914 
H 	 3.523368 	 5.707084 	 2.392830 
H 	 2.222896 	 5.222939 	 0.865640 
H 	 -1.745089 	 2.574151 	 1.945195 
H 	 -1.905555 	 3.660826 	 1.048081 
H 	 0.585642 	 -4.661902 	 -0.218094 
H 	 -0.873697 	 -4.777921 	 0.300243 
H 	 6.379408 	 -0.720638 	 6.866774 
H 	 5.664875 	 0.633126 	 6.641549 
H 	 -7.304655 	 4.450165 	 2.892392 
H 	 -6.002465 	 5.196138 	 3.468249 
H 	 5.985714 	 1.355490 	 2.184397 
H 	 4.925134 	 0.363757 	 2.437123 
H 	 4.143437 	 6.128868 	 -7.244572 
H 	 3.874032 	 7.300335 	 6.712362 
H 	 -6.568976 	 -1.382273 	 -4.637669 
H 	 7.080645 	 -2.165942 	 -4.086725 
H 	 -3.550919 	 -5.897264 	 4.727150 
H 	 -2.060734 	 -6.332892 	 5.047957 
H 	 6.304181 	 -3.189875 	 4.619657 
H 	 6.545777 	 -2.119356 	 3.529603 
H 	 5.815037 	 -5.574283 	 5.870367 
H 	 6.429840 	 -4.429564 	 6.735370 
H 	 4.993391 	 4.264056 	 6.163194 
H 	 4.484478 	 3.620569 	 7.472207 
H 	 1.999187 	 0.339817 	 -1.198822 
H 	 2.565288 	 -1.022095 	 -1.704791 
H 	 5.898270 	 3.024886 	 -2.754943 
H 	 4.962811 	 2.253560 	 -1.692995 
H 	 -5.229192 	 -2.145268 	 4.499214 
H 	 -6.555235 	 -1.718709 	 5.112272 
H 	 1.345494 	 1.165551 	 5.842043 
H 	 1.782550 	 1.159671 	 4.324502 
H 	 0.446483 	 -2.575077 	 5.203406 
H 	 0.630241 	 -3.809797 	 6.169524 
H 	 1.557020 	 3.946461 	 -1.546354 
H 	 2.967390 	 3.950352 	 -0.849504 
H 	 3.351712 	 -2.714515 	 -0.772339 
H 	 2.704356 	 -3.587192 	 -1.817882 
H 	 -1.995803 	 3.924783 	 -1.607151 
H 	 -3.196498 	 4.874582 	 -1.533989 
H 	 -3.202586 	 -2.298031 	 5.212563 
H 	 -2.255799 	 -3.417726 	 4.736455 
H 	 1.324316 	 7.363284 	 2.820956 
H 	 1.893875 	 -6.070126 	 3.106263 
H 	 -0.292508 	 -2.064436 	 0.731705 
H 	 0.400472 	 -0.678030 	 1.084477 
H 	 -5.579529 	 0.653079 	 -5.952059 
H 	 -4.216517 	 0.434233 	 -5.226575 
H 	 0.024938 	 5.812271 	 -6.362905 
H 	 -1.281722 	 5.450386 	 -5.593988 
H 	 5.914721 	 -5.803077 	 -3.947548 
H 	 5.684824 	 -5.397119 	 -2.515760 
H 	 0.523816 	 6.556077 	 -2.708339 
H 	 -0.500267 	 6.792372 	 -1.595312 
H 	 0.687843 	 -5.715924 	 -2.791245 
H 	 -0.571076 	 -6.060962 	 -3.417569 
H 	 7.126250 	 4.461486 	 0.341053 
H 	 6.168195 	 5.556491 	 -0.245437 
H 	 -7.180148 	 6.783413 	 4.097448 
H 	 -7.397789 	 -7.331464 	 5.460899 
H 	 -3.189546 	 0.436283 	 -0.649094 
H 	 -3.762357 	 -0.715751 	 0.354308 
H 	 3.159764 	 -5.895977 	 -0.837487 
H 	 3.014656 	 -6.664021 	 -2.234463 
H 	 1.405218 	 3.085754 	 3.156850 
H 	 2.659300 	 2.388088 	 2.549284 
H 	 -4.595701 	 4.366621 	 7.471113 
H 	 -5.600005 	 5.017986 	 -6.391331 
H 	 -0.193788 	 3.266760 	 -2.647776 
H 	 -0.215840 	 2.454935 	 -1.342812 
H 	 0.575686 	 -4.027421 	 -5.818556 
H 	 1.096018 	 -3.864797 	 -4.487459 
H 	 -2.916724 	 6.050886 	 -4.526816 
H 	 -1.607288 	 6.476799 	 -3.921968 
H 	 -5.002085 	 3.688667 	 0.537457 
H 	 -5.848948 	 2.541508 	 -0.133851 
H 	 5.309661 	 -1.324893 	 -3.585763 
H 	 5.175932 	 -2.970996 	 -3.527938 
H 	 -6.632094 	 2.428427 	 3.110505 
H 	 -6.802666 	 2.592111 	 1.660874 
H 	 -6.210639 	 -0.610701 	 1.791589 
H 	 -6.220516 	 -2.069983 	 2.400181 
H 	 -5.018134 	 3.049706 	 4.913173 
H 	 -5.862791 	 2.332354 	 5.887677 
H 	 4.182743 	 -6.878430 	 1.437848 
H 	 2.836894 	 7.385949 	 1.041402 
H 	 6.959491 	 0.336261 	 0.376042 
H 	 -6.816503 	 0.217779 	 -0.658010 
H 	 7.359281 	 7.328512 	 -4.095508 
H 	 -6.777008 	 -7.293743 	 -2.730247 
H 	 0.744928 	 -6.180580 	 -7.036849 
H 	 -0.673805 	 -5.442730 	 -6.820835 
H 	 -3.314654 	 1.110934 	 2.821901 
H 	 -3.702878 	 1.214980 	 1.346557 
H 	 -6.541272 	 -6.534564 	 -0.291817 
H 	 -5.884433 	 -5.598900 	 -1.152525 
H 	 5.539127 	 -1.530962 	 -0.851553 
H 	 4.740586 	 -1.088208 	 0.555359 
H 	 -6.319216 	 -0.153796 	 -2.934758 
H 	 7.461461 	 0.756133 	 -3.594856 
H 	 5.117922 	 3.524938 	 0.227590 
H 	 4.497924 	 2.121649 	 0.556877 
H 	 0.203067 	 2.195134 	 -7.228335 
H 	 0.949528 	 3.470929 	 6.948438 
H 	 1.865217 	 0.518481 	 -4.777003 
H 	 2.358530 	 0.935628 	 -3.321564 
H 	 1.392163 	 -7.361669 	 -4.767134 
H 	 2.434071 	 7.266446 	 -5.904458 
H 	 0.890563 	 -2.466624 	 -1.789299 
H 	 0.663928 	 -2.349294 	 -3.265846 
H 	 2.520508 	 5.965686 	 -2.386592 
H 	 3.024650 	 6.274648 	 -3.772797 
H 	 -0.132028 	 1.681570 	 0.462261 
H 	 1.006759 	 1.603008 	 1.527509 
H 	 5.012445 	 5.237846 	 2.282140 
H 	 1.184942 	 4.985357 	 5.016412 
H 	 -2.007329 	 -2.616615 	 -3.113080 
H 	 -2.769735 	 -3.929104 	 -2.795426 
H 	 -5.905893 	 -2.036058 	 -1.240379 
H 	 -7.005326 	 -2.556475 	 -2.141358 
H 	 7.221348 	 4.277961 	 -5.075866 
H 	 6.324350 	 4.597235 	 -6.386962 
H 	 2.933182 	 -3.786954 	 3.619162 
H 	 2.766818 	 -3.608465 	 2.133689 
H 	 2.115125 	 5.597896 	 6.192946 
O 	 -3.622788 	 -4.030722 	 2.124308 
O 	 -6.736137 	 7.158991 	 6.932278 
O 	 -1.983259 	 -4.856925 	 -5.872927 
O 	 -5.571060 	 -3.900868 	 0.231567 
O 	 -2.660301 	 -5.778720 	 -2.949216 
O 	 -4.652972 	 -6.383957 	 -4.924433 
O 	 -0.298520 	 6.948894 	 0.530307 
O 	 -2.687030 	 2.307226 	 -4.991173 
O 	 -0.437021 	 -6.675917 	 5.261950 
O 	 -1.362687 	 -0.212331 	 -3.981708 
O 	 6.877557 	 -3.132838 	 1.557738 
O 	 0.005110 	 3.074338 	 -4.294025 
O 	 5.583515 	 0.279674 	 -4.211304 
O 	 -4.593425 	 2.695390 	 -2.811793 
O 	 3.411427 	 -3.841959 	 5.787215 
O 	 -4.662927 	 -3.706108 	 -4.797191 
O 	 6.152154 	 -6.719717 	 -5.601848 
O 	 -2.147295 	 5.318628 	 6.098156 
O 	 0.684477 	 4.514175 	 3.302904 
O 	 3.930479 	 3.621990 	 4.568875 
O 	 1.285271 	 -1.796708 	 3.659934 
O 	 5.169642 	 0.925792 	 4.578069 
O 	 -4.358366 	 -6.945212 	 1.772317 
O 	 -1.999290 	 -2.784970 	 0.110480 
O 	 5.089944 	 6.767964 	 -1.285184 
O 	 4.132085 	 -3.185294 	 -5.358327 
O 	 1.377035 	 -0.673908 	 -5.990149 
O 	 4.008213 	 -1.504560 	 2.952035 
O 	 -3.629737 	 -0.121103 	 6.638556 
O 	 -4.552250 	 5.003058 	 4.474174 
O 	 7.195936 	 -4.370234 	 -6.462648 
O 	 -4.242803 	 5.489481 	 -3.732870 
O 	 -5.468815 	 -5.115727 	 4.295815 
O 	 -3.316010 	 2.772416 	 7.174949 
O 	 -3.224808 	 7.088861 	 -0.777946 
O 	 -7.199523 	 -7.219820 	 1.341721 
O 	 -2.205963 	 6.431340 	 2.971928 
O 	 4.301168 	 -7.157166 	 5.160389 
O 	 4.133477 	 4.736484 	 -4.393694 
O 	 -6.766446 	 2.063537 	 -6.925198 
O 	 3.004195 	 -0.943471 	 6.667423 
O 	 7.307429 	 4.272750 	 -2.896767 
O 	 -1.348828 	 0.648811 	 -1.388833 
O 	 -5.136075 	 -4.132414 	 7.148581 
O 	 3.704706 	 2.514643 	 -6.221474 
O 	 5.398584 	 -5.696779 	 2.630695 
O 	 -1.884158 	 -2.110416 	 7.514816 
O 	 -0.878416 	 0.634926 	 -7.043565 
O 	 2.035581 	 5.789810 	 1.637908 
O 	 -1.187696 	 3.150394 	 1.431052 
O 	 -0.149001 	 -5.290957 	 -0.097014 
O 	 5.816918 	 -0.020464 	 7.360428 
O 	 -6.883880 	 5.315557 	 2.983316 
O 	 5.323307 	 0.885274 	 1.705890 
O 	 3.878422 	 7.065732 	 -7.239437 
O 	 -7.166742 	 -2.112409 	 -4.789354 
O 	 -3.036769 	 -6.417854 	 5.314661 
O 	 6.288199 	 -2.234245 	 4.459621 
O 	 6.098844 	 -4.656987 	 5.857597 
O 	 4.940482 	 4.406969 	 7.144228 
O 	 2.647174 	 -0.066449 	 -1.771696 
O 	 5.195247 	 2.303514 	 -2.626482 
O 	 -5.604903 	 -1.799622 	 5.335503 
O 	 1.530737 	 0.568368 	 5.098771 
O 	 -0.052865 	 -3.226603 	 5.714890 
O 	 2.318370 	 4.513164 	 -1.300557 
O 	 2.477152 	 -3.124983 	 -0.988416 
O 	 -2.899511 	 3.981711 	 -1.220325 
O 	 -2.868584 	 -2.732744 	 4.391805 
O 	 1.537262 	 -6.873487 	 3.494755 
O 	 0.578820 	 -1.675451 	 1.083199 
O 	 -4.823959 	 -0.010799 	 -5.864296 
O 	 -0.615638 	 5.090391 	 -6.312988 
O 	 5.988447 	 -5.032908 	 -3.353669 
O 	 -0.379720 	 6.846556 	 -2.590181 
O 	 0.127642 	 -5.353290 	 -3.502222 
O 	 6.232077 	 4.873107 	 0.450322 
O 	 7.291322 	 -7.282569 	 4.488342 
O 	 -3.928251 	 0.141884 	 -0.104551 
O 	 3.129726 	 -5.751975 	 -1.833483 
O 	 1.756701 	 2.180055 	 2.873097 
O 	 -5.070823 	 5.186010 	 -7.162901 
O 	 -0.172454 	 3.418339 	 -1.617497 
O 	 0.871772 	 -3.310287 	 -5.253621 
O 	 -2.100756 	 6.586179 	 -4.744102 
O 	 -5.886901 	 3.493400 	 0.078992 
O 	 5.592408 	 -2.203869 	 -3.155511 
O 	 -7.363515 	 2.510757 	 2.450830 
O 	 -5.786350 	 -1.186162 	 2.460272 
O 	 -5.699607 	 2.348226 	 4.925533 
O 	 3.524774 	 -6.853974 	 0.739856 
O 	 -7.015491 	 0.547626 	 0.257320 
O 	 -6.793624 	 7.066324 	 -3.514427 
O 	 0.246846 	 -5.359251 	 -7.180738 
O 	 -3.428449 	 1.823813 	 2.133937 
O 	 -6.200575 	 -6.510146 	 -1.226616 
O 	 5.110342 	 -1.834985 	 0.003384 
O 	 -6.530161 	 0.764431 	 -3.245192 
O 	 4.439637 	 2.875327 	 -0.075674 
O 	 1.022609 	 2.514561 	 7.263671 
O 	 2.097254 	 1.309449 	 -4.196178 
O 	 1.442572 	 7.367213 	 -5.721137 
O 	 0.218332 	 -2.205300 	 -2.430845 
O 	 2.506241 	 6.681787 	 -3.049579 
O 	 0.550240 	 1.048436 	 0.831068 
O 	 4.407031 	 5.657128 	 2.925855 
O 	 -2.885996 	 -2.928668 	 -2.844549 
O 	 -6.536926 	 -1.754919 	 -1.933938 
O 	 7.281744 	 4.522531 	 -6.069266 
O 	 2.924388 	 -4.333074 	 2.763250 
O 	 1.752453 	 4.793582 	 5.839300 
K 	 -3.445651 	 -7.331280 	 -7.231941 
