333
conformation = 5
H 	 -6.216953 	 3.949982 	 -186.993737 
H 	 -5.518017 	 5.292601 	 -186.350617 
H 	 5.350368 	 1.355285 	 -181.675619 
H 	 6.257627 	 0.203684 	 -182.182601 
H 	 -3.799703 	 4.183559 	 305.694886 
H 	 -4.111789 	 4.880669 	 -180.693100 
H 	 6.322568 	 4.955686 	 -188.553878 
H 	 -7.031220 	 5.077283 	 -188.370298 
H 	 -5.018571 	 2.492175 	 308.500947 
H 	 -5.502556 	 2.894146 	 307.049313 
H 	 -7.496405 	 2.135550 	 306.420757 
H 	 -6.992088 	 3.439913 	 305.816693 
H 	 -1.569720 	 0.405766 	 -188.640097 
H 	 -2.172659 	 1.846456 	 -188.902730 
H 	 -5.478539 	 -3.534488 	 306.403265 
H 	 -3.947700 	 -3.387056 	 305.928114 
H 	 -1.799735 	 2.198937 	 -184.692049 
H 	 -2.239468 	 2.864492 	 -183.426337 
H 	 -3.943746 	 -5.648619 	 306.085629 
H 	 -2.644079 	 -6.528980 	 306.353568 
H 	 4.305737 	 4.951091 	 -187.338643 
H 	 3.981711 	 6.098577 	 -188.271917 
H 	 -1.481916 	 -3.748029 	 306.378187 
H 	 -2.029871 	 -2.375641 	 305.636935 
H 	 3.284629 	 -5.592562 	 305.552490 
H 	 3.059656 	 -5.018612 	 307.063422 
H 	 -7.317272 	 -4.117265 	 307.821091 
H 	 -6.306939 	 -3.139641 	 308.741375 
H 	 2.203912 	 4.914901 	 -183.269605 
H 	 0.950360 	 5.892815 	 -183.149631 
H 	 7.167221 	 5.498749 	 305.989194 
H 	 -6.378135 	 5.494616 	 306.733003 
H 	 4.309199 	 3.009127 	 -180.444943 
H 	 3.297581 	 1.727558 	 -180.470288 
H 	 -3.572173 	 -0.827307 	 -182.517933 
H 	 -4.911413 	 -1.483462 	 -183.093644 
H 	 -0.913820 	 -0.954476 	 -186.664013 
H 	 -2.308746 	 -1.664287 	 -186.514760 
H 	 0.958215 	 -2.078456 	 -184.342352 
H 	 2.044892 	 -1.644859 	 -185.380799 
H 	 -1.340927 	 -7.701228 	 -186.500175 
H 	 -1.015102 	 -7.076553 	 -185.061329 
H 	 2.340217 	 -4.374025 	 -184.708407 
H 	 2.491916 	 -5.936322 	 -184.969847 
H 	 -6.021805 	 1.521996 	 -186.784746 
H 	 -7.505373 	 1.930242 	 -187.431360 
H 	 -4.556144 	 5.881681 	 309.907856 
H 	 -4.730105 	 5.588705 	 -188.568360 
H 	 2.738401 	 1.028264 	 308.524395 
H 	 2.207765 	 1.124392 	 309.992697 
H 	 2.200302 	 4.736636 	 305.472287 
H 	 1.039179 	 5.617548 	 305.179453 
H 	 -0.180100 	 -6.911499 	 -181.143563 
H 	 -1.009905 	 -7.633940 	 304.934761 
H 	 2.323791 	 6.775665 	 -185.713089 
H 	 0.934410 	 7.165031 	 -186.141922 
H 	 -6.324126 	 -6.470293 	 -183.393652 
H 	 -6.417297 	 -6.060696 	 -181.887744 
H 	 -6.180553 	 -0.864103 	 -185.613423 
H 	 -6.455027 	 -0.368020 	 -184.160245 
H 	 5.106519 	 5.393560 	 -180.395921 
H 	 5.952837 	 4.252686 	 -181.148664 
H 	 -6.529743 	 -1.517079 	 306.813845 
H 	 -7.253346 	 -0.104261 	 306.852499 
H 	 6.945794 	 3.947505 	 -184.128530 
H 	 6.650664 	 3.017251 	 -185.220049 
H 	 -5.420406 	 -4.177311 	 -182.487378 
H 	 -5.098287 	 -3.366842 	 -181.260270 
H 	 -4.695172 	 1.019026 	 -189.416394 
H 	 -6.147745 	 1.377347 	 310.442216 
H 	 5.393456 	 0.737987 	 -187.737693 
H 	 4.797277 	 2.069120 	 -187.569961 
H 	 -3.954536 	 0.547337 	 -185.414045 
H 	 -3.596843 	 0.633773 	 -186.927621 
H 	 1.349379 	 1.685682 	 -184.712449 
H 	 2.838029 	 1.164950 	 -184.600020 
H 	 1.571510 	 -1.616124 	 307.088607 
H 	 1.663073 	 -1.991001 	 305.627251 
H 	 5.800024 	 -3.004006 	 -181.203347 
H 	 5.049240 	 -4.298969 	 -181.300798 
H 	 0.387675 	 -6.480269 	 -183.406787 
H 	 1.665768 	 -6.560508 	 -182.332948 
H 	 5.292562 	 -0.784384 	 307.901721 
H 	 5.966402 	 -2.157958 	 308.091578 
H 	 -3.674648 	 -5.294514 	 308.372661 
H 	 -3.056650 	 -6.232620 	 309.426892 
H 	 -6.832674 	 5.126747 	 -181.373430 
H 	 -7.351960 	 5.493194 	 -182.782008 
H 	 1.504317 	 -4.145905 	 305.252021 
H 	 0.634183 	 -3.662782 	 -180.976770 
H 	 3.511850 	 2.938974 	 -185.795989 
H 	 2.402816 	 3.696286 	 -186.501210 
H 	 -4.860528 	 -7.694173 	 -181.866399 
H 	 -3.556721 	 6.575124 	 -182.601689 
H 	 -2.356240 	 -5.921176 	 -180.962547 
H 	 -3.579844 	 -6.020534 	 -181.963243 
H 	 1.375171 	 -0.336159 	 -186.912685 
H 	 0.081105 	 -0.827497 	 -188.435320 
H 	 -3.889325 	 -3.466025 	 -187.341464 
H 	 -4.050900 	 -2.385681 	 -188.252102 
H 	 -1.553177 	 4.190113 	 310.476491 
H 	 -3.012730 	 4.077098 	 -188.993072 
H 	 4.242332 	 -6.754625 	 -182.450884 
H 	 3.538672 	 -5.411066 	 -182.672163 
H 	 5.465711 	 -1.585047 	 -186.412164 
H 	 6.763417 	 -0.834017 	 -185.840605 
H 	 3.842209 	 -4.689486 	 -187.117730 
H 	 2.789154 	 -5.683408 	 -186.858105 
H 	 2.009193 	 0.083967 	 -181.643959 
H 	 1.721740 	 1.247192 	 -182.615103 
H 	 6.181171 	 -7.431274 	 306.051373 
H 	 4.936644 	 6.687728 	 306.607462 
H 	 -5.691275 	 2.948865 	 -184.578465 
H 	 -4.205449 	 2.535042 	 -184.265531 
H 	 4.171367 	 5.664587 	 -184.674476 
H 	 4.401899 	 6.732815 	 -185.783598 
H 	 3.683718 	 3.277972 	 -183.428599 
H 	 4.290889 	 4.425882 	 -182.572911 
H 	 2.850316 	 -1.779161 	 -183.136693 
H 	 2.339455 	 -2.434809 	 -181.829247 
H 	 -0.161994 	 -5.719782 	 309.490183 
H 	 0.415577 	 -7.067896 	 308.991349 
H 	 3.749168 	 -3.027562 	 307.929441 
H 	 2.820027 	 -3.791841 	 308.999295 
H 	 -7.378989 	 6.715103 	 -184.809468 
H 	 6.204092 	 7.145892 	 -184.221651 
H 	 -0.793942 	 -4.890583 	 -183.468083 
H 	 -0.365408 	 -4.892236 	 -184.982821 
H 	 -1.700957 	 6.284993 	 -184.100057 
H 	 -1.510200 	 5.044107 	 -183.147392 
H 	 -0.595579 	 -2.097343 	 309.148044 
H 	 0.821281 	 -2.091175 	 309.861714 
H 	 1.210976 	 6.138079 	 309.918954 
H 	 0.564061 	 5.277022 	 308.880935 
H 	 -4.141562 	 -2.118415 	 309.081970 
H 	 -5.333311 	 -1.170345 	 309.155758 
H 	 -5.349277 	 6.556484 	 -184.085428 
H 	 -4.393900 	 5.441176 	 -184.571664 
H 	 -0.812759 	 1.316882 	 -186.494209 
H 	 -0.248378 	 2.793580 	 -186.198942 
H 	 -2.440773 	 6.801644 	 -188.572839 
H 	 -1.746748 	 -6.728284 	 -188.220426 
H 	 7.172196 	 -5.398954 	 -180.365649 
H 	 -6.347708 	 -5.610724 	 305.479726 
H 	 -2.110951 	 -0.230691 	 -180.773833 
H 	 -3.424779 	 -0.593430 	 305.098897 
H 	 3.768125 	 3.050063 	 306.739416 
H 	 3.536901 	 3.444085 	 308.182484 
H 	 -1.620039 	 0.501311 	 307.974703 
H 	 -2.638191 	 0.738813 	 309.102218 
H 	 -1.446931 	 3.148497 	 307.903250 
H 	 -2.715861 	 2.799518 	 307.273766 
H 	 4.973657 	 -1.575391 	 -188.961762 
H 	 4.027121 	 -0.482652 	 310.444300 
H 	 5.598438 	 0.745872 	 -185.206737 
H 	 5.362431 	 1.520583 	 -183.837640 
H 	 -5.331606 	 -5.594466 	 310.057935 
H 	 -5.905856 	 -6.774483 	 -188.954044 
H 	 1.026157 	 2.961142 	 309.862891 
H 	 0.859195 	 2.188958 	 308.453287 
H 	 -0.737235 	 -2.967833 	 -186.152419 
H 	 0.514296 	 -3.655854 	 -186.769637 
H 	 -6.742878 	 -1.683876 	 -181.824873 
H 	 7.150778 	 -1.030131 	 -180.799418 
H 	 -2.325211 	 -2.771589 	 308.047863 
H 	 -2.349008 	 -3.588537 	 309.348008 
H 	 -1.575372 	 4.838841 	 -180.233106 
H 	 -1.044463 	 4.976756 	 306.196410 
H 	 -5.065769 	 0.017929 	 306.181669 
H 	 -3.755597 	 0.445004 	 306.763329 
H 	 -7.145689 	 -2.355612 	 -188.757973 
H 	 6.902995 	 -3.507952 	 310.552774 
H 	 3.168654 	 -7.379983 	 307.105171 
H 	 3.034721 	 5.881951 	 307.164820 
H 	 6.116656 	 -3.626538 	 -186.195599 
H 	 5.938565 	 -3.458727 	 -187.658368 
H 	 6.553782 	 -6.652869 	 -187.521188 
H 	 6.528269 	 6.783183 	 -186.915951 
H 	 -7.154449 	 -2.999822 	 -184.396271 
H 	 6.901328 	 -3.725666 	 -183.427628 
H 	 2.035291 	 1.969245 	 -187.855416 
H 	 0.696855 	 1.336445 	 -188.287345 
H 	 4.813439 	 -5.707739 	 -188.935371 
H 	 5.934421 	 -5.839437 	 310.036621 
H 	 5.217440 	 1.283379 	 306.594495 
H 	 5.975300 	 1.556128 	 307.962903 
H 	 -1.394112 	 2.670307 	 -181.439177 
H 	 -2.797980 	 3.414033 	 -181.228030 
H 	 -5.455485 	 -4.924033 	 -186.480296 
H 	 -5.835956 	 -4.844926 	 -187.964630 
H 	 6.211649 	 2.315163 	 310.405993 
H 	 6.887909 	 3.247053 	 309.541591 
H 	 3.394246 	 -7.582513 	 309.838460 
H 	 2.600458 	 -7.132458 	 -188.738613 
H 	 6.434911 	 -6.195814 	 307.749790 
H 	 5.317415 	 -5.285839 	 307.096474 
H 	 2.976663 	 -2.518357 	 -189.072732 
H 	 2.357625 	 -3.915378 	 -188.752324 
H 	 -1.943628 	 -3.846237 	 -181.630077 
H 	 -1.193716 	 -2.586213 	 -182.352175 
H 	 -0.278145 	 -5.531131 	 305.918021 
H 	 0.208139 	 -5.105541 	 307.366217 
H 	 -0.760398 	 1.503028 	 305.920834 
H 	 0.296184 	 1.216656 	 -180.319822 
H 	 -1.262705 	 6.396387 	 308.893148 
H 	 -1.482312 	 6.510892 	 307.431585 
H 	 0.373615 	 -0.086319 	 308.304560 
H 	 0.892608 	 0.231416 	 306.929047 
H 	 -2.274499 	 -4.370083 	 -188.833092 
H 	 -1.142547 	 -4.439081 	 -187.766089 
H 	 2.853895 	 -0.827856 	 -187.020845 
H 	 -0.952309 	 -1.060478 	 -184.295827 
H 	 -4.146363 	 6.235028 	 307.576646 
H 	 -4.908232 	 4.928885 	 307.900930 
H 	 6.849480 	 6.823711 	 309.448821 
H 	 5.763229 	 6.291237 	 308.560984 
H 	 5.074388 	 -1.769202 	 305.614603 
H 	 4.192619 	 -1.447213 	 -180.780920 
H 	 0.785924 	 5.045127 	 -185.686264 
H 	 0.619920 	 5.244852 	 -187.177494 
H 	 -0.027275 	 -0.441734 	 -183.121754 
O 	 -5.764406 	 4.821610 	 -187.182003 
O 	 6.021400 	 1.112260 	 -182.374314 
O 	 -4.128879 	 3.997871 	 -180.273935 
O 	 7.188581 	 4.956120 	 -189.073283 
O 	 -4.801722 	 3.073569 	 307.743891 
O 	 -6.795252 	 2.469978 	 305.770445 
O 	 -2.439619 	 0.908229 	 -188.776802 
O 	 -4.830891 	 -3.736151 	 305.702577 
O 	 -2.578726 	 2.179610 	 -184.044232 
O 	 -3.503226 	 -6.259672 	 306.713621 
O 	 4.736993 	 5.725305 	 -187.746833 
O 	 -2.137861 	 -2.969274 	 306.400141 
O 	 3.439437 	 -5.765226 	 306.482414 
O 	 -6.735911 	 -3.353258 	 307.882489 
O 	 1.271243 	 5.010954 	 -183.515701 
O 	 -6.805643 	 5.148370 	 305.895494 
O 	 4.009185 	 2.135152 	 305.089186 
O 	 -4.290554 	 -0.728675 	 -183.206388 
O 	 -1.459663 	 -1.529394 	 -186.007556 
O 	 1.783808 	 -2.424542 	 -184.738531 
O 	 -0.852976 	 7.061411 	 -185.650667 
O 	 3.027666 	 -5.120399 	 -184.730520 
O 	 -6.502063 	 1.910186 	 -187.534292 
O 	 -4.142559 	 6.070416 	 -189.197548 
O 	 2.945643 	 0.723730 	 309.412614 
O 	 1.991347 	 5.670908 	 305.334711 
O 	 -0.764752 	 -6.721197 	 -180.396527 
O 	 1.866100 	 -7.544670 	 -186.354427 
O 	 -5.770959 	 -6.161808 	 -182.668967 
O 	 -6.691570 	 -1.042904 	 -184.827586 
O 	 5.051650 	 4.484660 	 -180.870932 
O 	 -6.386376 	 -0.557166 	 306.959568 
O 	 7.292943 	 3.741492 	 -185.010350 
O 	 -5.457840 	 -3.269545 	 -182.129767 
O 	 -5.368796 	 1.041211 	 309.917668 
O 	 5.557601 	 1.633484 	 -187.965761 
O 	 -4.349475 	 0.384627 	 -186.333248 
O 	 2.155195 	 1.695205 	 -184.144386 
O 	 1.991799 	 -1.308831 	 306.299584 
O 	 5.994360 	 -3.977939 	 -181.332732 
O 	 0.858088 	 -6.986839 	 -182.640080 
O 	 5.164563 	 -1.767633 	 307.796179 
O 	 -3.491080 	 -5.392297 	 309.302942 
O 	 -7.279330 	 4.720102 	 -182.159535 
O 	 1.563597 	 -3.532016 	 -180.625642 
O 	 3.256013 	 3.160734 	 -186.674632 
O 	 -4.026901 	 6.741974 	 -181.792529 
O 	 -3.023425 	 -5.410965 	 -181.450856 
O 	 -0.104518 	 -0.253796 	 -187.669821 
O 	 -3.330740 	 -2.893700 	 -187.877567 
O 	 -2.289155 	 3.562142 	 -189.401870 
O 	 3.672006 	 -6.065689 	 -181.943993 
O 	 5.872642 	 -0.727572 	 -186.323176 
O 	 3.178340 	 -5.159932 	 -187.601992 
O 	 1.734140 	 1.022845 	 -181.645435 
O 	 5.589566 	 6.745413 	 305.904414 
O 	 -5.178403 	 2.434644 	 -183.994617 
O 	 4.150376 	 6.621718 	 -184.846544 
O 	 3.955735 	 4.196152 	 -183.447379 
O 	 2.796071 	 -1.638564 	 -182.163360 
O 	 0.505215 	 -6.112042 	 308.921004 
O 	 3.053510 	 -3.740211 	 308.067992 
O 	 7.153321 	 7.055142 	 -183.972370 
O 	 -0.610607 	 -5.476840 	 -184.208294 
O 	 -2.196820 	 5.631104 	 -183.596392 
O 	 0.176061 	 -1.529654 	 309.392262 
O 	 0.336489 	 5.730328 	 309.705652 
O 	 -5.040445 	 -2.066624 	 309.473521 
O 	 -5.011324 	 6.122765 	 -184.915649 
O 	 -0.606911 	 1.982394 	 -185.810632 
O 	 -1.564945 	 7.179696 	 -188.221885 
O 	 -6.966111 	 -6.054945 	 -180.269594 
O 	 -2.759288 	 -0.953495 	 -180.721494 
O 	 3.848823 	 3.821512 	 307.339741 
O 	 -2.522070 	 0.800080 	 308.104309 
O 	 -2.013100 	 3.501522 	 307.191418 
O 	 4.090836 	 -1.169977 	 -188.853001 
O 	 5.147239 	 1.570729 	 -184.822417 
O 	 -6.066991 	 -5.902465 	 -189.413544 
O 	 0.988775 	 3.102134 	 308.860977 
O 	 -0.384610 	 -3.865609 	 -186.430771 
O 	 -7.212053 	 -0.856036 	 -181.565573 
O 	 -2.313526 	 -2.626412 	 309.078865 
O 	 -1.268382 	 5.546477 	 305.439536 
O 	 -4.243932 	 0.539385 	 305.949355 
O 	 6.868743 	 -2.553432 	 -189.228787 
O 	 3.448443 	 6.649824 	 307.536975 
O 	 5.391070 	 -3.533952 	 -186.856188 
O 	 6.974074 	 -7.235603 	 -186.845033 
O 	 7.060123 	 -3.694993 	 -184.378987 
O 	 1.381532 	 2.002259 	 -188.566505 
O 	 5.746383 	 -5.502622 	 -189.052180 
O 	 5.961532 	 1.019866 	 307.177676 
O 	 -1.900440 	 3.498761 	 -181.583151 
O 	 -5.572836 	 -4.221421 	 -187.173471 
O 	 6.558487 	 2.344267 	 309.467175 
O 	 2.970200 	 7.019626 	 -189.301426 
O 	 6.226408 	 -5.283435 	 307.448458 
O 	 2.295289 	 -3.167501 	 -189.382249 
O 	 -1.116072 	 -3.528944 	 -182.042917 
O 	 -0.046945 	 -4.734964 	 306.496084 
O 	 -0.698627 	 1.321268 	 304.968695 
O 	 -1.925027 	 6.652129 	 308.258929 
O 	 0.365789 	 0.638926 	 307.643380 
O 	 -1.593360 	 -4.995543 	 -188.477259 
O 	 2.264050 	 -0.388267 	 -186.375540 
O 	 -5.029170 	 5.926223 	 307.851055 
O 	 6.220416 	 7.103109 	 308.758699 
O 	 5.140559 	 -1.521628 	 -180.474097 
O 	 0.780277 	 4.519241 	 -186.541122 
O 	 -0.386927 	 -1.252073 	 -183.469636 
K 	 -5.587102 	 1.524874 	 -181.637565 
