333
conformation = 18
H 	 -2.894923 	 6.785094 	 -4.219190 
H 	 -2.641411 	 -6.736068 	 -3.608567 
H 	 -6.433606 	 4.036359 	 1.074097 
H 	 -5.277141 	 3.198222 	 0.383224 
H 	 -0.748133 	 6.939849 	 3.224917 
H 	 -1.184488 	 -7.107076 	 2.050323 
H 	 -5.411154 	 -7.081636 	 -5.773332 
H 	 -3.859619 	 -6.976346 	 -5.902563 
H 	 -1.895238 	 5.392583 	 6.102527 
H 	 -2.453268 	 5.658200 	 4.722229 
H 	 -4.381496 	 4.844633 	 3.886828 
H 	 -3.813746 	 6.327489 	 3.454032 
H 	 1.444060 	 3.174421 	 -5.752394 
H 	 0.947332 	 4.627257 	 -6.122048 
H 	 -2.314607 	 -0.852019 	 4.049311 
H 	 -0.958175 	 -0.399904 	 3.582322 
H 	 1.171008 	 5.058543 	 -2.110164 
H 	 0.616860 	 5.772808 	 -0.756892 
H 	 -0.811392 	 -2.722649 	 3.601401 
H 	 0.431312 	 -3.520547 	 3.879487 
H 	 -7.544469 	 -7.114144 	 -4.633685 
H 	 7.095417 	 -5.847535 	 -5.540730 
H 	 1.719133 	 -0.782449 	 3.948656 
H 	 1.011329 	 0.436982 	 3.181942 
H 	 6.294030 	 -2.684632 	 3.153861 
H 	 6.219629 	 -2.143142 	 4.648339 
H 	 -4.237884 	 -1.166548 	 5.623590 
H 	 -3.210648 	 -0.093110 	 6.243608 
H 	 5.264423 	 -7.149105 	 -0.761925 
H 	 4.205559 	 -6.145920 	 -0.371515 
H 	 -4.541598 	 -6.338477 	 3.481070 
H 	 -3.199048 	 -6.492359 	 4.242366 
H 	 -7.660048 	 5.860622 	 2.244265 
H 	 6.405692 	 4.623073 	 2.161480 
H 	 -0.463810 	 2.096754 	 0.120810 
H 	 -1.598226 	 1.292955 	 -0.359376 
H 	 2.151410 	 1.840871 	 -4.091878 
H 	 0.803364 	 0.988669 	 -3.638920 
H 	 4.044193 	 0.678265 	 -1.725844 
H 	 5.182479 	 1.180950 	 -2.765110 
H 	 1.825782 	 -4.832310 	 -3.799802 
H 	 2.166832 	 -4.145163 	 -2.454565 
H 	 5.434747 	 -1.493643 	 -1.976128 
H 	 5.644734 	 -3.096109 	 -2.206690 
H 	 -3.088372 	 4.322117 	 -4.053751 
H 	 -4.376542 	 4.718441 	 -4.715112 
H 	 -1.447840 	 -6.310366 	 -7.330211 
H 	 -1.497717 	 -6.389001 	 -5.728874 
H 	 5.777875 	 3.771210 	 6.021173 
H 	 5.361510 	 3.963026 	 -7.382371 
H 	 5.189233 	 7.596557 	 3.202444 
H 	 4.164358 	 -6.295736 	 2.542942 
H 	 2.931956 	 -3.854330 	 1.488860 
H 	 2.101001 	 -4.777165 	 2.490814 
H 	 5.342390 	 -5.244192 	 -2.918953 
H 	 3.978155 	 -4.718043 	 -3.514617 
H 	 -3.270552 	 -3.593033 	 -0.723644 
H 	 -3.328179 	 -3.216690 	 0.811114 
H 	 -2.998291 	 1.982454 	 -2.923900 
H 	 -3.385822 	 2.549106 	 -1.617686 
H 	 -6.602671 	 -6.698385 	 2.352376 
H 	 -5.810677 	 7.289091 	 1.469268 
H 	 -3.483562 	 1.368834 	 4.397888 
H 	 -4.193025 	 2.735214 	 4.585657 
H 	 -4.828753 	 6.750786 	 -1.415291 
H 	 -5.177817 	 5.788101 	 -2.569641 
H 	 -2.655139 	 -1.299660 	 0.140655 
H 	 -2.125650 	 -0.614057 	 1.420636 
H 	 -1.480712 	 3.794069 	 -6.874052 
H 	 -2.962271 	 4.120119 	 -6.745195 
H 	 -6.401140 	 3.622987 	 -5.068446 
H 	 -7.049616 	 5.019874 	 -5.086747 
H 	 -0.876402 	 3.172572 	 -2.739243 
H 	 -0.583133 	 3.642995 	 -4.314169 
H 	 4.504742 	 4.644628 	 -2.079254 
H 	 5.791366 	 3.906291 	 -1.990382 
H 	 4.664182 	 1.247701 	 4.696415 
H 	 4.677838 	 0.934513 	 3.189233 
H 	 -5.840043 	 -0.184561 	 1.420807 
H 	 -6.827747 	 -1.446208 	 1.316524 
H 	 3.692785 	 -3.425130 	 -0.545509 
H 	 4.912059 	 -3.895256 	 0.293900 
H 	 -6.447742 	 1.975689 	 5.524304 
H 	 -5.854055 	 0.607459 	 5.720241 
H 	 -0.359358 	 -2.623169 	 5.938913 
H 	 -0.034028 	 -3.473959 	 6.955374 
H 	 -3.736974 	 -6.825977 	 1.307433 
H 	 -4.287068 	 -6.594963 	 -0.150965 
H 	 4.566563 	 -1.133862 	 2.884049 
H 	 3.685141 	 -0.691107 	 1.665383 
H 	 6.632545 	 5.854583 	 -3.131037 
H 	 5.504758 	 6.494929 	 -4.124218 
H 	 -1.749266 	 -4.751803 	 0.737592 
H 	 -0.592435 	 -5.385058 	 0.021367 
H 	 0.798976 	 -3.199195 	 1.493915 
H 	 -0.549791 	 -3.158023 	 0.874130 
H 	 4.479473 	 2.496066 	 -4.302189 
H 	 3.103089 	 2.129539 	 -5.822896 
H 	 -0.837054 	 -0.779521 	 -4.904840 
H 	 -0.775359 	 0.519286 	 -5.734163 
H 	 1.472633 	 7.121044 	 -6.857093 
H 	 -0.007261 	 7.026115 	 -6.549391 
H 	 -7.682737 	 -4.044156 	 0.343454 
H 	 6.447891 	 -2.664169 	 -0.046413 
H 	 -6.429190 	 1.299335 	 -3.750487 
H 	 -5.182358 	 1.754617 	 -3.051940 
H 	 7.008657 	 -1.793255 	 -4.452870 
H 	 5.755587 	 -2.847152 	 -4.301163 
H 	 5.038753 	 2.884705 	 0.875449 
H 	 5.028895 	 4.309955 	 0.130172 
H 	 -5.646954 	 -4.587878 	 3.630079 
H 	 -6.901507 	 -5.294707 	 4.157110 
H 	 -2.581038 	 5.900729 	 -1.843559 
H 	 -1.144838 	 5.184505 	 -1.522960 
H 	 7.121616 	 -6.408155 	 -2.114251 
H 	 -7.335962 	 -5.264506 	 -3.057309 
H 	 6.615169 	 6.231796 	 -0.844884 
H 	 -7.561953 	 7.203691 	 0.136350 
H 	 5.892528 	 1.071609 	 -0.436611 
H 	 5.409734 	 0.472331 	 0.890266 
H 	 3.150790 	 -2.800884 	 7.254978 
H 	 3.458447 	 -4.172322 	 6.635193 
H 	 6.810876 	 -0.170142 	 5.665575 
H 	 5.887136 	 -0.864883 	 6.581254 
H 	 -4.351951 	 -5.341721 	 -2.110104 
H 	 -5.637484 	 -5.061951 	 -1.231877 
H 	 2.195172 	 -1.952313 	 -0.850287 
H 	 2.715174 	 -1.997894 	 -2.253427 
H 	 1.446902 	 -6.011396 	 -1.527440 
H 	 1.531254 	 -6.978733 	 -0.245495 
H 	 2.481902 	 0.720114 	 6.762187 
H 	 4.023554 	 0.680531 	 7.164245 
H 	 4.235501 	 -5.916957 	 -7.303944 
H 	 3.637960 	 -6.961202 	 6.586855 
H 	 -1.030181 	 0.729935 	 6.847259 
H 	 -2.293926 	 1.766814 	 6.820200 
H 	 -2.226888 	 -5.424389 	 -1.420316 
H 	 -1.317939 	 -6.617330 	 -1.840349 
H 	 2.257892 	 4.168235 	 -3.830077 
H 	 2.834157 	 5.592763 	 -3.672261 
H 	 0.748882 	 -5.357450 	 -5.897605 
H 	 1.417223 	 -3.890132 	 -5.697600 
H 	 -4.599066 	 -2.478883 	 2.348960 
H 	 -3.204748 	 -2.737411 	 2.962970 
H 	 1.003628 	 2.626449 	 1.986586 
H 	 -0.324980 	 2.348394 	 2.591829 
H 	 6.914571 	 5.893978 	 4.343713 
H 	 6.621935 	 6.468228 	 5.827801 
H 	 1.518325 	 3.517224 	 5.644882 
H 	 0.326868 	 3.748483 	 6.640714 
H 	 1.642965 	 6.018939 	 5.476070 
H 	 0.292689 	 5.713278 	 4.781046 
H 	 -6.839149 	 1.285507 	 -6.328101 
H 	 7.037904 	 2.335230 	 -6.932145 
H 	 -6.678045 	 3.556275 	 -2.533048 
H 	 -6.368413 	 4.293701 	 -1.100592 
H 	 -2.293933 	 -3.069619 	 -7.319265 
H 	 -2.712179 	 -3.861314 	 -6.207438 
H 	 3.989512 	 5.798537 	 -7.482727 
H 	 4.087479 	 5.057824 	 6.024530 
H 	 2.306409 	 -0.067661 	 -3.534220 
H 	 3.667336 	 -0.807300 	 -3.836863 
H 	 -3.628852 	 1.142933 	 0.791511 
H 	 -4.556587 	 1.747961 	 1.867434 
H 	 0.653577 	 0.129587 	 5.597440 
H 	 0.538663 	 -0.655488 	 7.009917 
H 	 1.651701 	 7.590606 	 2.454099 
H 	 1.941691 	 -6.870335 	 3.917440 
H 	 -1.932152 	 2.854157 	 3.603992 
H 	 -0.642370 	 3.287713 	 4.331272 
H 	 -3.948567 	 0.572372 	 -6.267728 
H 	 -4.873466 	 -0.629834 	 -6.702650 
H 	 6.229783 	 -4.551223 	 4.695140 
H 	 6.063888 	 -6.031207 	 4.697247 
H 	 -5.804667 	 -0.726731 	 -3.336467 
H 	 -5.775835 	 -0.501336 	 -4.923987 
H 	 -5.443940 	 -3.826948 	 -4.850880 
H 	 -5.229793 	 -5.224013 	 -4.228840 
H 	 -4.184573 	 -0.089165 	 -1.806618 
H 	 -5.136472 	 -0.804016 	 -0.828464 
H 	 5.270486 	 4.973876 	 -5.339605 
H 	 3.897513 	 4.272691 	 -5.340687 
H 	 -7.042806 	 -2.832281 	 -6.175720 
H 	 -5.827340 	 -2.818552 	 -7.221119 
H 	 -6.561225 	 4.192590 	 4.224618 
H 	 -5.786810 	 4.498331 	 5.575011 
H 	 1.665480 	 5.465570 	 1.339159 
H 	 0.412540 	 6.298093 	 1.425787 
H 	 -2.440910 	 -2.122067 	 -3.840339 
H 	 -2.878919 	 -1.727677 	 -5.334485 
H 	 -5.652384 	 4.995018 	 -6.944401 
H 	 -5.108790 	 6.171183 	 6.991788 
H 	 6.492582 	 -4.622058 	 -7.445727 
H 	 5.661719 	 -4.164430 	 -6.244396 
H 	 -5.432347 	 -3.245695 	 5.461594 
H 	 -6.489289 	 -2.485775 	 4.710959 
H 	 6.086501 	 0.350414 	 -6.474218 
H 	 5.490390 	 -1.065793 	 -6.046853 
H 	 1.039700 	 -1.032942 	 0.906212 
H 	 1.847791 	 0.231499 	 0.314945 
H 	 2.848937 	 -2.652388 	 3.489092 
H 	 3.371722 	 -2.333756 	 4.906710 
H 	 2.368317 	 4.259714 	 3.580591 
H 	 3.350631 	 4.139692 	 2.313841 
H 	 1.833700 	 -5.695998 	 6.532892 
H 	 1.565287 	 -5.565729 	 5.053003 
H 	 3.543720 	 2.790609 	 5.960481 
H 	 3.794556 	 3.042274 	 4.432640 
H 	 0.858407 	 -1.538587 	 -6.169123 
H 	 2.071534 	 -1.594257 	 -5.137304 
H 	 6.133854 	 2.446962 	 -4.394350 
H 	 2.057376 	 1.872573 	 -1.518314 
H 	 -1.067060 	 -5.713568 	 5.209877 
H 	 -1.793200 	 -7.104733 	 5.453756 
H 	 -5.024599 	 -5.387430 	 7.042385 
H 	 -6.209700 	 -5.630135 	 6.054734 
H 	 -6.776620 	 1.189288 	 3.163475 
H 	 -7.563711 	 1.362797 	 1.746362 
H 	 3.932871 	 -6.949430 	 -3.054175 
H 	 3.756048 	 -6.823892 	 -4.613502 
H 	 2.998962 	 2.417691 	 -0.364049 
O 	 -2.688218 	 -7.184174 	 -4.504228 
O 	 -5.782469 	 4.002604 	 0.303870 
O 	 -0.985873 	 6.876903 	 2.313549 
O 	 -4.658833 	 -7.116543 	 -6.424344 
O 	 -1.741988 	 5.979522 	 5.332179 
O 	 -3.719109 	 5.350640 	 3.340218 
O 	 0.627439 	 3.705539 	 -6.090115 
O 	 -1.716165 	 -0.897982 	 3.278176 
O 	 0.505496 	 5.046400 	 -1.354165 
O 	 -0.448113 	 -3.360746 	 4.268008 
O 	 -7.116699 	 -6.379955 	 -5.087845 
O 	 0.947713 	 -0.124115 	 3.966580 
O 	 6.559234 	 -2.911160 	 4.041449 
O 	 -3.644192 	 -0.422142 	 5.434452 
O 	 4.320229 	 -6.988804 	 -0.898059 
O 	 -3.740115 	 -6.869369 	 3.495269 
O 	 7.101183 	 4.991642 	 2.693667 
O 	 -1.191526 	 2.175633 	 -0.561636 
O 	 1.644750 	 1.314163 	 -3.270509 
O 	 4.942604 	 0.448938 	 -2.030774 
O 	 2.168223 	 -5.027216 	 -2.901095 
O 	 6.106546 	 -2.251874 	 -2.012202 
O 	 -3.382433 	 4.762522 	 -4.837823 
O 	 -1.045883 	 -5.985043 	 -6.486247 
O 	 6.058650 	 3.579935 	 6.921902 
O 	 5.042686 	 -6.383307 	 2.915520 
O 	 2.320697 	 -3.826505 	 2.269801 
O 	 4.933430 	 -4.762206 	 -3.675196 
O 	 -2.692282 	 -3.368463 	 0.015032 
O 	 -3.657072 	 1.835838 	 -2.230518 
O 	 -6.717600 	 7.356071 	 1.830153 
O 	 -3.271601 	 2.316382 	 4.553666 
O 	 -4.601729 	 6.558380 	 -2.336648 
O 	 -2.381880 	 -0.449735 	 0.516877 
O 	 -2.242710 	 3.946002 	 -7.437450 
O 	 -6.255336 	 4.505985 	 -5.266561 
O 	 -1.250024 	 3.275196 	 -3.674827 
O 	 5.306523 	 4.594698 	 -1.510496 
O 	 5.063614 	 1.567714 	 3.879651 
O 	 -5.873327 	 -1.177883 	 1.353968 
O 	 3.999338 	 -4.162325 	 0.055850 
O 	 -6.632027 	 1.029446 	 5.384132 
O 	 -0.405337 	 -2.592340 	 6.903387 
O 	 -4.172207 	 7.624012 	 0.551130 
O 	 4.612510 	 -0.645830 	 2.002847 
O 	 6.348363 	 5.986727 	 -4.015001 
O 	 -0.936398 	 -5.264451 	 0.924193 
O 	 0.101486 	 -2.533882 	 1.235961 
O 	 2.953306 	 2.595629 	 -4.977378 
O 	 -0.232806 	 -0.031491 	 -5.169933 
O 	 0.769252 	 6.449863 	 -6.750956 
O 	 6.799006 	 -3.192252 	 0.713270 
O 	 -5.937852 	 2.094951 	 -3.649204 
O 	 6.308925 	 -2.293486 	 -4.913651 
O 	 4.852642 	 3.848433 	 1.051341 
O 	 -6.189513 	 -5.342999 	 3.472685 
O 	 -2.108110 	 5.341078 	 -1.275233 
O 	 7.165529 	 -5.431204 	 -2.171393 
O 	 7.055981 	 7.084538 	 -0.793589 
O 	 5.927595 	 1.244253 	 0.521557 
O 	 3.602224 	 -3.222082 	 6.504614 
O 	 6.138227 	 -0.888498 	 5.630963 
O 	 -4.662388 	 -4.990051 	 -1.262120 
O 	 2.465411 	 -2.590265 	 -1.514094 
O 	 0.915762 	 -6.449282 	 -0.839844 
O 	 3.277458 	 1.304563 	 6.981601 
O 	 3.405697 	 -6.315157 	 7.260994 
O 	 -1.977689 	 0.853957 	 7.050087 
O 	 -1.909553 	 -5.931813 	 -2.223734 
O 	 2.518393 	 4.825615 	 -3.135791 
O 	 1.544268 	 -4.857690 	 -5.564145 
O 	 -3.899432 	 -3.200527 	 2.383354 
O 	 0.354644 	 1.883046 	 1.986972 
O 	 6.894736 	 6.699157 	 4.916062 
O 	 0.566667 	 3.685382 	 5.672908 
O 	 1.052939 	 6.344432 	 4.776823 
O 	 7.177571 	 1.649768 	 -6.219091 
O 	 -6.640217 	 4.463562 	 -2.097191 
O 	 -3.039462 	 -3.033407 	 -6.705493 
O 	 4.053203 	 5.982483 	 6.419770 
O 	 2.698014 	 -0.981819 	 -3.787888 
O 	 -4.134009 	 1.965809 	 1.037395 
O 	 0.750940 	 0.217684 	 6.600253 
O 	 1.793255 	 -6.530477 	 3.025234 
O 	 -1.129390 	 3.415777 	 3.536147 
O 	 -4.915216 	 0.337770 	 -6.528217 
O 	 6.571080 	 -5.357124 	 5.148230 
O 	 -6.352380 	 -0.668618 	 -4.160373 
O 	 -4.877054 	 -4.297023 	 -4.176153 
O 	 -4.783381 	 -0.851929 	 -1.711501 
O 	 4.471889 	 4.832865 	 -5.889235 
O 	 -6.128921 	 -2.548600 	 -6.328770 
O 	 -5.811514 	 3.903253 	 4.781596 
O 	 1.249413 	 6.318718 	 1.018105 
O 	 -2.453696 	 -1.365035 	 -4.469759 
O 	 -5.276843 	 5.235653 	 7.044121 
O 	 6.015667 	 -5.021275 	 -6.656792 
O 	 -5.563830 	 -2.381656 	 5.029236 
O 	 5.406457 	 -0.350306 	 -6.701188 
O 	 1.933282 	 -0.680314 	 0.631663 
O 	 3.075791 	 -1.880748 	 4.100735 
O 	 2.372736 	 4.197745 	 2.613159 
O 	 1.192546 	 -5.429861 	 5.904553 
O 	 3.426891 	 3.468884 	 5.228727 
O 	 1.512725 	 -2.151653 	 -5.790648 
O 	 5.375745 	 2.482369 	 -3.784946 
O 	 -1.930757 	 -6.124928 	 5.403117 
O 	 -5.583717 	 -4.983506 	 6.358554 
O 	 -6.697874 	 1.330914 	 2.178646 
O 	 3.899942 	 7.439203 	 -3.880823 
O 	 2.649559 	 1.615070 	 -0.745648 
K 	 -2.513781 	 4.365606 	 1.025400 
