333
conformation = 4
H 	 -46.757494 	 3.949982 	 -89.396139 
H 	 -46.058557 	 5.292601 	 -88.753019 
H 	 -35.190173 	 1.355285 	 -84.078022 
H 	 -34.282913 	 0.203684 	 -84.585003 
H 	 -44.340244 	 4.183559 	 403.292484 
H 	 -44.652330 	 4.880669 	 -83.095503 
H 	 -34.217973 	 4.955686 	 -90.956280 
H 	 452.428239 	 5.077283 	 -90.772701 
H 	 -45.559111 	 2.492175 	 -93.901456 
H 	 -46.043096 	 2.894146 	 404.646911 
H 	 451.963054 	 2.135550 	 404.018354 
H 	 452.467371 	 3.439913 	 403.414290 
H 	 -42.110261 	 0.405766 	 -91.042499 
H 	 -42.713200 	 1.846456 	 -91.305132 
H 	 -46.019079 	 -3.534488 	 404.000863 
H 	 -44.488240 	 -3.387056 	 403.525712 
H 	 -42.340276 	 2.198937 	 -87.094451 
H 	 -42.780008 	 2.864492 	 -85.828740 
H 	 -44.484286 	 -5.648619 	 403.683227 
H 	 -43.184620 	 -6.528980 	 403.951165 
H 	 -36.234803 	 4.951091 	 -89.741045 
H 	 -36.558830 	 6.098577 	 -90.674319 
H 	 -42.022457 	 -3.748029 	 403.975784 
H 	 -42.570412 	 -2.375641 	 403.234533 
H 	 -37.255911 	 -5.592562 	 403.150087 
H 	 -37.480884 	 -5.018612 	 404.661019 
H 	 452.142187 	 -4.117265 	 -94.581311 
H 	 -46.847480 	 -3.139641 	 -93.661028 
H 	 -38.336629 	 4.914901 	 -85.672007 
H 	 -39.590181 	 5.892815 	 -85.552033 
H 	 -33.373319 	 5.498749 	 403.586792 
H 	 453.081324 	 5.494616 	 404.330600 
H 	 -36.231342 	 3.009127 	 -82.847346 
H 	 -37.242959 	 1.727558 	 -82.872690 
H 	 -44.112714 	 -0.827307 	 -84.920335 
H 	 -45.451954 	 -1.483462 	 -85.496047 
H 	 -41.454361 	 -0.954476 	 -89.066415 
H 	 -42.849286 	 -1.664287 	 -88.917163 
H 	 -39.582325 	 -2.078456 	 -86.744754 
H 	 -38.495648 	 -1.644859 	 -87.783201 
H 	 -41.881468 	 -7.701228 	 -88.902577 
H 	 -41.555642 	 -7.076553 	 -87.463732 
H 	 -38.200323 	 -4.374025 	 -87.110809 
H 	 -38.048625 	 -5.936322 	 -87.372250 
H 	 -46.562345 	 1.521996 	 -89.187149 
H 	 451.954087 	 1.930242 	 -89.833762 
H 	 -45.096685 	 5.881681 	 -92.494546 
H 	 -45.270646 	 5.588705 	 -90.970762 
H 	 -37.802140 	 1.028264 	 -93.878007 
H 	 -38.332776 	 1.124392 	 -92.409705 
H 	 -38.340239 	 4.736636 	 403.069884 
H 	 -39.501362 	 5.617548 	 402.777051 
H 	 -40.720640 	 -6.911499 	 -83.545965 
H 	 -41.550446 	 -7.633940 	 402.532359 
H 	 -38.216750 	 6.775665 	 -88.115492 
H 	 -39.606131 	 7.165031 	 -88.544324 
H 	 -46.864667 	 -6.470293 	 -85.796055 
H 	 453.042162 	 -6.060696 	 -84.290146 
H 	 -46.721094 	 -0.864103 	 -88.015825 
H 	 453.004432 	 -0.368020 	 -86.562647 
H 	 -35.434022 	 5.393560 	 -82.798324 
H 	 -34.587703 	 4.252686 	 -83.551067 
H 	 452.929716 	 -1.517079 	 404.411443 
H 	 452.206114 	 -0.104261 	 404.450096 
H 	 -33.594747 	 3.947505 	 -86.530933 
H 	 -33.889877 	 3.017251 	 -87.622452 
H 	 -45.960947 	 -4.177311 	 -84.889780 
H 	 -45.638828 	 -3.366842 	 -83.662672 
H 	 -45.235713 	 1.019026 	 -91.818797 
H 	 -46.688285 	 1.377347 	 -91.960187 
H 	 -35.147085 	 0.737987 	 -90.140095 
H 	 -35.743264 	 2.069120 	 -89.972364 
H 	 -44.495077 	 0.547337 	 -87.816447 
H 	 -44.137384 	 0.633773 	 -89.330023 
H 	 -39.191162 	 1.685682 	 -87.114851 
H 	 -37.702512 	 1.164950 	 -87.002422 
H 	 -38.969031 	 -1.616124 	 404.686204 
H 	 -38.877468 	 -1.991001 	 403.224849 
H 	 -34.740516 	 -3.004006 	 -83.605749 
H 	 -35.491301 	 -4.298969 	 -83.703200 
H 	 -40.152865 	 -6.480269 	 -85.809189 
H 	 -38.874772 	 -6.560508 	 -84.735350 
H 	 -35.247979 	 -0.784384 	 -94.500681 
H 	 -34.574138 	 -2.157958 	 -94.310824 
H 	 -44.215189 	 -5.294514 	 -94.029741 
H 	 -43.597190 	 -6.232620 	 -92.975510 
H 	 452.626786 	 5.126747 	 -83.775832 
H 	 452.107500 	 5.493194 	 -85.184411 
H 	 -39.036223 	 -4.145905 	 402.849619 
H 	 -39.906357 	 -3.662782 	 -83.379173 
H 	 -37.028690 	 2.938974 	 -88.198392 
H 	 -38.137725 	 3.696286 	 -88.903613 
H 	 -45.401069 	 -7.694173 	 -84.268802 
H 	 -44.097262 	 6.575124 	 -85.004091 
H 	 -42.896780 	 -5.921176 	 -83.364950 
H 	 -44.120385 	 -6.020534 	 -84.365645 
H 	 -39.165370 	 -0.336159 	 -89.315087 
H 	 -40.459436 	 -0.827497 	 -90.837722 
H 	 -44.429866 	 -3.466025 	 -89.743866 
H 	 -44.591441 	 -2.385681 	 -90.654504 
H 	 -42.093717 	 4.190113 	 -91.925911 
H 	 -43.553271 	 4.077098 	 -91.395474 
H 	 -36.298209 	 -6.754625 	 -84.853287 
H 	 -37.001869 	 -5.411066 	 -85.074565 
H 	 -35.074830 	 -1.585047 	 -88.814567 
H 	 -33.777124 	 -0.834017 	 -88.243007 
H 	 -36.698331 	 -4.689486 	 -89.520132 
H 	 -37.751386 	 -5.683408 	 -89.260507 
H 	 -38.531347 	 0.083967 	 -84.046362 
H 	 -38.818801 	 1.247192 	 -85.017505 
H 	 -34.359369 	 -7.431274 	 403.648971 
H 	 -35.603897 	 6.687728 	 404.205060 
H 	 -46.231815 	 2.948865 	 -86.980867 
H 	 -44.745990 	 2.535042 	 -86.667934 
H 	 -36.369174 	 5.664587 	 -87.076879 
H 	 -36.138641 	 6.732815 	 -88.186001 
H 	 -36.856823 	 3.277972 	 -85.831001 
H 	 -36.249652 	 4.425882 	 -84.975313 
H 	 -37.690225 	 -1.779161 	 -85.539096 
H 	 -38.201085 	 -2.434809 	 -84.231649 
H 	 -40.702534 	 -5.719782 	 -92.912220 
H 	 -40.124963 	 -7.067896 	 -93.411054 
H 	 -36.791373 	 -3.027562 	 -94.472961 
H 	 -37.720513 	 -3.791841 	 -93.403107 
H 	 452.080471 	 6.715103 	 -87.211871 
H 	 -34.336448 	 7.145892 	 -86.624053 
H 	 -41.334483 	 -4.890583 	 -85.870486 
H 	 -40.905948 	 -4.892236 	 -87.385224 
H 	 -42.241497 	 6.284993 	 -86.502460 
H 	 -42.050741 	 5.044107 	 -85.549795 
H 	 -41.136120 	 -2.097343 	 -93.254359 
H 	 -39.719259 	 -2.091175 	 -92.540688 
H 	 -39.329565 	 6.138079 	 -92.483449 
H 	 -39.976479 	 5.277022 	 -93.521468 
H 	 -44.682102 	 -2.118415 	 -93.320432 
H 	 -45.873851 	 -1.170345 	 -93.246644 
H 	 -45.889817 	 6.556484 	 -86.487830 
H 	 -44.934440 	 5.441176 	 -86.974066 
H 	 -41.353299 	 1.316882 	 -88.896611 
H 	 -40.788918 	 2.793580 	 -88.601345 
H 	 -42.981313 	 6.801644 	 -90.975242 
H 	 -42.287288 	 -6.728284 	 -90.622828 
H 	 -33.368345 	 -5.398954 	 -82.768051 
H 	 453.111751 	 -5.610724 	 403.077323 
H 	 -42.651491 	 -0.230691 	 -83.176236 
H 	 -43.965320 	 -0.593430 	 402.696494 
H 	 -36.772415 	 3.050063 	 404.337014 
H 	 -37.003640 	 3.444085 	 -94.219919 
H 	 -42.160579 	 0.501311 	 -94.427700 
H 	 -43.178731 	 0.738813 	 -93.300185 
H 	 -41.987471 	 3.148497 	 -94.499152 
H 	 -43.256402 	 2.799518 	 404.871363 
H 	 -35.566883 	 -1.575391 	 -91.364164 
H 	 -36.513420 	 -0.482652 	 -91.958102 
H 	 -34.942103 	 0.745872 	 -87.609139 
H 	 -35.178109 	 1.520583 	 -86.240042 
H 	 -45.872147 	 -5.594466 	 -92.344467 
H 	 -46.446396 	 -6.774483 	 -91.356447 
H 	 -39.514383 	 2.961142 	 -92.539512 
H 	 -39.681345 	 2.188958 	 -93.949116 
H 	 -41.277775 	 -2.967833 	 -88.554821 
H 	 -40.026245 	 -3.655854 	 -89.172039 
H 	 452.716582 	 -1.683876 	 -84.227275 
H 	 -33.389763 	 -1.030131 	 -83.201821 
H 	 -42.865752 	 -2.771589 	 -94.354539 
H 	 -42.889549 	 -3.588537 	 -93.054394 
H 	 -42.115913 	 4.838841 	 -82.635508 
H 	 -41.585004 	 4.976756 	 403.794008 
H 	 -45.606310 	 0.017929 	 403.779267 
H 	 -44.296138 	 0.445004 	 404.360927 
H 	 452.313771 	 -2.355612 	 -91.160375 
H 	 -33.637546 	 -3.507952 	 -91.849628 
H 	 -37.371886 	 -7.379983 	 404.702769 
H 	 -37.505819 	 5.881951 	 404.762418 
H 	 -34.423884 	 -3.626538 	 -88.598001 
H 	 -34.601976 	 -3.458727 	 -90.060771 
H 	 -33.986759 	 -6.652869 	 -89.923591 
H 	 -34.012271 	 6.783183 	 -89.318353 
H 	 452.305010 	 -2.999822 	 -86.798673 
H 	 -33.639213 	 -3.725666 	 -85.830030 
H 	 -38.505250 	 1.969245 	 -90.257818 
H 	 -39.843686 	 1.336445 	 -90.689748 
H 	 -35.727101 	 -5.707739 	 -91.337774 
H 	 -34.606119 	 -5.839437 	 -92.365781 
H 	 -35.323101 	 1.283379 	 404.192092 
H 	 -34.565241 	 1.556128 	 -94.439500 
H 	 -41.934653 	 2.670307 	 -83.841579 
H 	 -43.338521 	 3.414033 	 -83.630432 
H 	 -45.996025 	 -4.924033 	 -88.882699 
H 	 -46.376496 	 -4.844926 	 -90.367032 
H 	 -34.328891 	 2.315163 	 -91.996409 
H 	 -33.652631 	 3.247053 	 -92.860812 
H 	 -37.146294 	 -7.582513 	 -92.563943 
H 	 -37.940083 	 -7.132458 	 -91.141015 
H 	 -34.105629 	 -6.195814 	 -94.652612 
H 	 -35.223126 	 -5.285839 	 404.694072 
H 	 -37.563878 	 -2.518357 	 -91.475134 
H 	 -38.182916 	 -3.915378 	 -91.154726 
H 	 -42.484168 	 -3.846237 	 -84.032479 
H 	 -41.734256 	 -2.586213 	 -84.754577 
H 	 -40.818686 	 -5.531131 	 403.515619 
H 	 -40.332401 	 -5.105541 	 404.963815 
H 	 -41.300938 	 1.503028 	 403.518432 
H 	 -40.244356 	 1.216656 	 -82.722224 
H 	 -41.803246 	 6.396387 	 -93.509254 
H 	 -42.022852 	 6.510892 	 405.029183 
H 	 -40.166926 	 -0.086319 	 -94.097842 
H 	 -39.647933 	 0.231416 	 404.526645 
H 	 -42.815039 	 -4.370083 	 -91.235494 
H 	 -41.683088 	 -4.439081 	 -90.168492 
H 	 -37.686645 	 -0.827856 	 -89.423247 
H 	 -41.492850 	 -1.060478 	 -86.698229 
H 	 -44.686904 	 6.235028 	 -94.825757 
H 	 -45.448773 	 4.928885 	 -94.501472 
H 	 -33.691060 	 6.823711 	 -92.953581 
H 	 -34.777312 	 6.291237 	 -93.841418 
H 	 -35.466152 	 -1.769202 	 403.212201 
H 	 -36.347922 	 -1.447213 	 -83.183323 
H 	 -39.754616 	 5.045127 	 -88.088667 
H 	 -39.920620 	 5.244852 	 -89.579897 
H 	 -40.567815 	 -0.441734 	 -85.524156 
O 	 -46.304947 	 4.821610 	 -89.584405 
O 	 -34.519141 	 1.112260 	 -84.776717 
O 	 -44.669420 	 3.997871 	 -82.676337 
O 	 -33.351960 	 4.956120 	 -91.475685 
O 	 -45.342263 	 3.073569 	 -94.658511 
O 	 452.664207 	 2.469978 	 403.368043 
O 	 -42.980159 	 0.908229 	 -91.179204 
O 	 -45.371431 	 -3.736151 	 403.300175 
O 	 -43.119267 	 2.179610 	 -86.446634 
O 	 -44.043767 	 -6.259672 	 404.311219 
O 	 -35.803547 	 5.725305 	 -90.149236 
O 	 -42.678402 	 -2.969274 	 403.997738 
O 	 -37.101104 	 -5.765226 	 404.080012 
O 	 452.723548 	 -3.353258 	 -94.519913 
O 	 -39.269298 	 5.010954 	 -85.918104 
O 	 452.653816 	 5.148370 	 403.493091 
O 	 -36.531356 	 2.135152 	 402.686783 
O 	 -44.831094 	 -0.728675 	 -85.608790 
O 	 -42.000203 	 -1.529394 	 -88.409958 
O 	 -38.756733 	 -2.424542 	 -87.140933 
O 	 -41.393517 	 7.061411 	 -88.053069 
O 	 -37.512875 	 -5.120399 	 -87.132922 
O 	 452.957397 	 1.910186 	 -89.936695 
O 	 -44.683099 	 6.070416 	 -91.599950 
O 	 -37.594898 	 0.723730 	 -92.989788 
O 	 -38.549193 	 5.670908 	 402.932309 
O 	 -41.305293 	 -6.721197 	 -82.798929 
O 	 -38.674441 	 -7.544670 	 -88.756830 
O 	 -46.311499 	 -6.161808 	 -85.071369 
O 	 452.767889 	 -1.042904 	 -87.229989 
O 	 -35.488891 	 4.484660 	 -83.273335 
O 	 453.073084 	 -0.557166 	 404.557166 
O 	 -33.247598 	 3.741492 	 -87.412752 
O 	 -45.998381 	 -3.269545 	 -84.532169 
O 	 -45.909337 	 1.041211 	 -92.484734 
O 	 -34.982939 	 1.633484 	 -90.368163 
O 	 -44.890015 	 0.384627 	 -88.735650 
O 	 -38.385345 	 1.695205 	 -86.546788 
O 	 -38.548741 	 -1.308831 	 403.897182 
O 	 -34.546181 	 -3.977939 	 -83.735135 
O 	 -39.682453 	 -6.986839 	 -85.042482 
O 	 -35.375978 	 -1.767633 	 -94.606223 
O 	 -44.031621 	 -5.392297 	 -93.099460 
O 	 452.180130 	 4.720102 	 -84.561937 
O 	 -38.976943 	 -3.532016 	 -83.028044 
O 	 -37.284527 	 3.160734 	 -89.077034 
O 	 -44.567442 	 6.741974 	 -84.194932 
O 	 -43.563966 	 -5.410965 	 -83.853259 
O 	 -40.645058 	 -0.253796 	 -90.072223 
O 	 -43.871281 	 -2.893700 	 -90.279970 
O 	 -42.829696 	 3.562142 	 -91.804272 
O 	 -36.868535 	 -6.065689 	 -84.346395 
O 	 -34.667899 	 -0.727572 	 -88.725579 
O 	 -37.362200 	 -5.159932 	 -90.004395 
O 	 -38.806400 	 1.022845 	 -84.047837 
O 	 -34.950975 	 6.745413 	 403.502012 
O 	 -45.718944 	 2.434644 	 -86.397019 
O 	 -36.390165 	 6.621718 	 -87.248946 
O 	 -36.584806 	 4.196152 	 -85.849781 
O 	 -37.744470 	 -1.638564 	 -84.565762 
O 	 -40.035326 	 -6.112042 	 -93.481398 
O 	 -37.487030 	 -3.740211 	 -94.334411 
O 	 -33.387220 	 7.055142 	 -86.374772 
O 	 -41.151148 	 -5.476840 	 -86.610696 
O 	 -42.737360 	 5.631104 	 -85.998794 
O 	 -40.364480 	 -1.529654 	 -93.010141 
O 	 -40.204052 	 5.730328 	 -92.696751 
O 	 -45.580985 	 -2.066624 	 -92.928881 
O 	 -45.551865 	 6.122765 	 -87.318051 
O 	 -41.147452 	 1.982394 	 -88.213034 
O 	 -42.105485 	 7.179696 	 -90.624287 
O 	 452.493348 	 -6.054945 	 -82.671997 
O 	 -43.299828 	 -0.953495 	 -83.123897 
O 	 -36.691717 	 3.821512 	 404.937339 
O 	 -43.062610 	 0.800080 	 -94.298094 
O 	 -42.553641 	 3.501522 	 404.789016 
O 	 -36.449704 	 -1.169977 	 -91.255404 
O 	 -35.393302 	 1.570729 	 -87.224819 
O 	 -46.607532 	 -5.902465 	 -91.815947 
O 	 -39.551766 	 3.102134 	 -93.541426 
O 	 -40.925151 	 -3.865609 	 -88.833174 
O 	 452.247407 	 -0.856036 	 -83.967976 
O 	 -42.854066 	 -2.626412 	 -93.323538 
O 	 -41.808922 	 5.546477 	 403.037134 
O 	 -44.784473 	 0.539385 	 403.546953 
O 	 -33.671798 	 -2.553432 	 -91.631190 
O 	 -37.092098 	 6.649824 	 -94.865427 
O 	 -35.149471 	 -3.533952 	 -89.258590 
O 	 -33.566467 	 -7.235603 	 -89.247436 
O 	 -33.480418 	 -3.694993 	 -86.781389 
O 	 -39.159009 	 2.002259 	 -90.968907 
O 	 -34.794157 	 -5.502622 	 -91.454582 
O 	 -34.579009 	 1.019866 	 404.775274 
O 	 -42.440981 	 3.498761 	 -83.985554 
O 	 -46.113377 	 -4.221421 	 -89.575874 
O 	 -33.982054 	 2.344267 	 -92.935227 
O 	 -37.570340 	 7.019626 	 -91.703828 
O 	 -34.314133 	 -5.283435 	 405.046056 
O 	 -38.245252 	 -3.167501 	 -91.784651 
O 	 -41.656613 	 -3.528944 	 -84.445319 
O 	 -40.587486 	 -4.734964 	 404.093682 
O 	 -41.239167 	 1.321268 	 402.566293 
O 	 -42.465567 	 6.652129 	 -94.143473 
O 	 -40.174751 	 0.638926 	 -94.759023 
O 	 -42.133901 	 -4.995543 	 -90.879662 
O 	 -38.276490 	 -0.388267 	 -88.777942 
O 	 -45.569710 	 5.926223 	 -94.551348 
O 	 -34.320124 	 7.103109 	 -93.643704 
O 	 -35.399982 	 -1.521628 	 -82.876500 
O 	 -39.760263 	 4.519241 	 -88.943525 
O 	 -40.927468 	 -1.252073 	 -85.872038 
K 	 -46.127642 	 1.524874 	 -84.039968 
