333
conformation = 5
H 	 -45.223419 	 3.995759 	 -89.356614 
H 	 -44.589576 	 5.312717 	 -88.744587 
H 	 -33.675669 	 1.378683 	 -84.098750 
H 	 -32.710160 	 0.234565 	 -84.609520 
H 	 -42.836859 	 4.234636 	 403.306911 
H 	 -43.176042 	 4.949088 	 -83.072248 
H 	 -32.699982 	 4.985306 	 -90.932373 
H 	 453.965506 	 5.125276 	 -90.798779 
H 	 -44.062100 	 2.537888 	 -93.896965 
H 	 -44.567486 	 2.929695 	 404.669627 
H 	 453.469540 	 2.166415 	 404.016839 
H 	 453.973486 	 3.487812 	 403.440900 
H 	 -40.632525 	 0.454519 	 -91.023270 
H 	 -41.182252 	 1.874241 	 -91.282580 
H 	 -44.528737 	 -3.536553 	 404.012037 
H 	 -42.973229 	 -3.294521 	 403.530232 
H 	 -40.865302 	 2.246264 	 -87.094473 
H 	 -41.303144 	 2.956920 	 -85.810301 
H 	 -42.989927 	 -5.599421 	 403.694419 
H 	 -41.671964 	 -6.473396 	 403.948507 
H 	 -34.754916 	 4.988206 	 -89.730190 
H 	 -35.077362 	 6.152718 	 -90.656697 
H 	 -40.523352 	 -3.690270 	 403.994195 
H 	 -41.092050 	 -2.328687 	 403.217634 
H 	 -35.775987 	 -5.529158 	 403.131427 
H 	 -35.965003 	 -5.004672 	 404.649010 
H 	 453.641860 	 -4.068245 	 -94.560087 
H 	 -45.342683 	 -3.042645 	 -93.656754 
H 	 -36.821049 	 4.955329 	 -85.691470 
H 	 -38.065446 	 5.932178 	 -85.530734 
H 	 -31.884646 	 5.597200 	 403.581175 
H 	 454.575010 	 5.543660 	 404.338514 
H 	 -34.763352 	 3.057755 	 -82.868078 
H 	 -35.759801 	 1.762006 	 -82.906287 
H 	 -42.604119 	 -0.766846 	 -84.934658 
H 	 -43.935760 	 -1.447311 	 -85.485099 
H 	 -39.963357 	 -0.901839 	 -89.094436 
H 	 -41.368691 	 -1.655704 	 -88.908007 
H 	 -38.090767 	 -2.051438 	 -86.761965 
H 	 -36.997838 	 -1.642766 	 -87.756196 
H 	 -40.370035 	 -7.633418 	 -88.910612 
H 	 -40.038908 	 -7.026805 	 -87.462618 
H 	 -36.685033 	 -4.349736 	 -87.094154 
H 	 -36.544487 	 -5.916628 	 -87.369243 
H 	 -45.066025 	 1.541290 	 -89.128814 
H 	 453.470501 	 1.970825 	 -89.832979 
H 	 -43.595438 	 5.888651 	 -92.478045 
H 	 -43.753254 	 5.632231 	 -90.924566 
H 	 -36.318386 	 1.061749 	 -93.888857 
H 	 -36.843204 	 1.170726 	 -92.430743 
H 	 -36.855683 	 4.800192 	 403.099640 
H 	 -38.010754 	 5.692175 	 402.729003 
H 	 -39.210830 	 -6.863081 	 -83.554028 
H 	 -40.030853 	 -7.578027 	 402.505079 
H 	 -36.749757 	 6.817875 	 -88.101156 
H 	 -38.131063 	 7.214337 	 -88.548911 
H 	 -45.351992 	 -6.433857 	 -85.811854 
H 	 454.558032 	 -6.011930 	 -84.308553 
H 	 -45.220261 	 -0.830649 	 -88.036217 
H 	 454.493612 	 -0.313782 	 -86.569251 
H 	 -33.900160 	 5.440990 	 -82.788650 
H 	 -33.062308 	 4.325964 	 -83.554850 
H 	 454.427898 	 -1.466872 	 404.394265 
H 	 453.735610 	 -0.089926 	 404.477401 
H 	 -32.100597 	 3.975724 	 -86.529426 
H 	 -32.392483 	 3.050161 	 -87.616840 
H 	 -44.523850 	 -4.145322 	 -84.915950 
H 	 -44.147458 	 -3.325273 	 -83.638956 
H 	 -43.717543 	 1.050310 	 -91.823290 
H 	 -45.136987 	 1.385981 	 -91.943838 
H 	 -33.661229 	 0.725832 	 -90.133670 
H 	 -34.255379 	 2.133445 	 -90.009447 
H 	 -43.005338 	 0.550375 	 -87.838512 
H 	 -42.663175 	 0.703686 	 -89.325415 
H 	 -37.682031 	 1.740343 	 -87.131291 
H 	 -36.210874 	 1.174037 	 -87.028130 
H 	 -37.482519 	 -1.561642 	 404.670643 
H 	 -37.394792 	 -1.926859 	 403.250297 
H 	 -33.207435 	 -2.982798 	 -83.632183 
H 	 -33.998798 	 -4.233639 	 -83.709769 
H 	 -38.632323 	 -6.407811 	 -85.796703 
H 	 -37.352482 	 -6.559661 	 -84.735343 
H 	 -33.729101 	 -0.730830 	 -94.480893 
H 	 -33.066551 	 -2.137431 	 -94.294747 
H 	 -42.684854 	 -5.255240 	 -94.069756 
H 	 -42.098058 	 -6.230564 	 -92.974273 
H 	 454.129322 	 5.192343 	 -83.770341 
H 	 453.607820 	 5.518703 	 -85.207499 
H 	 -37.547328 	 -4.066021 	 402.829269 
H 	 -38.422769 	 -3.616316 	 -83.368915 
H 	 -35.506342 	 2.992486 	 -88.176848 
H 	 -36.646049 	 3.736038 	 -88.969016 
H 	 -43.904060 	 -7.639686 	 -84.259335 
H 	 -42.629360 	 6.641429 	 -85.007864 
H 	 -41.393986 	 -5.901702 	 -83.400946 
H 	 -42.635746 	 -5.995928 	 -84.345897 
H 	 -37.645332 	 -0.297079 	 -89.315785 
H 	 -38.960588 	 -0.767042 	 -90.854274 
H 	 -42.927815 	 -3.446280 	 -89.796371 
H 	 -43.081589 	 -2.331777 	 -90.679373 
H 	 -40.603083 	 4.242939 	 -91.928793 
H 	 -42.061876 	 4.122873 	 -91.435494 
H 	 -34.820208 	 -6.734090 	 -84.812931 
H 	 -35.548590 	 -5.370194 	 -85.055152 
H 	 -33.611782 	 -1.573825 	 -88.819693 
H 	 -32.308664 	 -0.836310 	 -88.238208 
H 	 -35.180932 	 -4.636253 	 -89.527235 
H 	 -36.269824 	 -5.633349 	 -89.296872 
H 	 -37.052335 	 0.123957 	 -84.069005 
H 	 -37.285259 	 1.318858 	 -84.960696 
H 	 -32.834088 	 -7.371042 	 403.662292 
H 	 -34.104563 	 6.736394 	 404.210122 
H 	 -44.743815 	 3.025929 	 -86.990400 
H 	 -43.242408 	 2.537936 	 -86.645250 
H 	 -34.895632 	 5.705538 	 -87.112495 
H 	 -34.630432 	 6.784100 	 -88.168677 
H 	 -35.389793 	 3.325380 	 -85.853342 
H 	 -34.755309 	 4.467863 	 -84.963151 
H 	 -36.187850 	 -1.740409 	 -85.555767 
H 	 -36.693634 	 -2.363866 	 -84.244130 
H 	 -39.149885 	 -5.631890 	 -92.892134 
H 	 -38.604246 	 -7.024686 	 -93.417198 
H 	 -35.277024 	 -2.967912 	 -94.442217 
H 	 -36.218327 	 -3.743602 	 -93.392677 
H 	 453.603226 	 6.744212 	 -87.204649 
H 	 -32.841379 	 7.161049 	 -86.542198 
H 	 -39.844034 	 -4.809413 	 -85.856854 
H 	 -39.389520 	 -4.829151 	 -87.380436 
H 	 -40.722404 	 6.312184 	 -86.515673 
H 	 -40.561675 	 5.096326 	 -85.521819 
H 	 -39.607289 	 -2.057732 	 -93.255251 
H 	 -38.202661 	 -2.060705 	 -92.593048 
H 	 -37.834516 	 6.187816 	 -92.474162 
H 	 -38.481007 	 5.289150 	 -93.535662 
H 	 -43.169036 	 -2.081681 	 -93.304055 
H 	 -44.388838 	 -1.128496 	 -93.232659 
H 	 -44.373630 	 6.599424 	 -86.516190 
H 	 -43.444750 	 5.474619 	 -86.968928 
H 	 -39.865898 	 1.364560 	 -88.875082 
H 	 -39.285843 	 2.815994 	 -88.611091 
H 	 -41.453988 	 6.815115 	 -90.977396 
H 	 -40.769016 	 -6.672725 	 -90.629958 
H 	 -31.844395 	 -5.337697 	 -82.747220 
H 	 454.579551 	 -5.567867 	 403.036693 
H 	 -41.165077 	 -0.189291 	 -83.162724 
H 	 -42.455593 	 -0.552101 	 402.690366 
H 	 -35.257596 	 3.098475 	 404.353205 
H 	 -35.487765 	 3.528369 	 -94.228365 
H 	 -40.647544 	 0.572903 	 -94.398768 
H 	 -41.690605 	 0.809203 	 -93.317705 
H 	 -40.505090 	 3.166898 	 -94.501197 
H 	 -41.747537 	 2.831991 	 404.875319 
H 	 -34.038235 	 -1.553016 	 -91.374361 
H 	 -35.017457 	 -0.454935 	 -91.949015 
H 	 -33.510664 	 0.774164 	 -87.613358 
H 	 -33.683054 	 1.570270 	 -86.265224 
H 	 -44.363794 	 -5.596796 	 -92.386004 
H 	 -44.937855 	 -6.686748 	 -91.355190 
H 	 -38.038641 	 2.998389 	 -92.567369 
H 	 -38.141012 	 2.243369 	 -93.929714 
H 	 -39.777903 	 -2.896863 	 -88.547637 
H 	 -38.517359 	 -3.615278 	 -89.132764 
H 	 454.230960 	 -1.624776 	 -84.256095 
H 	 -31.872394 	 -0.980972 	 -83.192024 
H 	 -41.395225 	 -2.742136 	 -94.352343 
H 	 -41.416556 	 -3.542281 	 -93.046192 
H 	 -40.591023 	 4.843720 	 -82.621972 
H 	 -40.089549 	 5.059999 	 403.826345 
H 	 -44.085675 	 0.029992 	 403.734860 
H 	 -42.772323 	 0.453105 	 404.390311 
H 	 453.809805 	 -2.315899 	 -91.199369 
H 	 -32.119467 	 -3.451567 	 -91.829418 
H 	 -35.873422 	 -7.314525 	 404.711171 
H 	 -36.012874 	 5.927359 	 404.759426 
H 	 -32.901393 	 -3.554814 	 -88.594924 
H 	 -33.054063 	 -3.396687 	 -90.027526 
H 	 -32.507445 	 -6.618105 	 -89.906195 
H 	 -32.484577 	 6.837023 	 -89.292847 
H 	 453.788701 	 -2.941860 	 -86.793170 
H 	 -32.161255 	 -3.645706 	 -85.803817 
H 	 -36.982514 	 2.035723 	 -90.292660 
H 	 -38.346961 	 1.393262 	 -90.623734 
H 	 -34.222229 	 -5.667015 	 -91.320791 
H 	 -33.085690 	 -5.757603 	 -92.363700 
H 	 -33.821244 	 1.328916 	 404.203305 
H 	 -33.049280 	 1.622610 	 -94.427654 
H 	 -40.442842 	 2.722822 	 -83.850130 
H 	 -41.887758 	 3.451131 	 -83.627714 
H 	 -44.500373 	 -4.903258 	 -88.898104 
H 	 -44.899606 	 -4.749522 	 -90.348628 
H 	 -32.815969 	 2.367026 	 -92.012221 
H 	 -32.192013 	 3.322019 	 -92.866596 
H 	 -35.641787 	 -7.519008 	 -92.546578 
H 	 -36.440494 	 -7.093208 	 -91.184827 
H 	 -32.597712 	 -6.156815 	 -94.626519 
H 	 -33.718982 	 -5.252441 	 404.700144 
H 	 -36.064309 	 -2.477609 	 -91.494265 
H 	 -36.686432 	 -3.893797 	 -91.146765 
H 	 -40.974517 	 -3.813066 	 -84.048546 
H 	 -40.230460 	 -2.514952 	 -84.768967 
H 	 -39.312000 	 -5.470697 	 403.514393 
H 	 -38.806904 	 -5.074578 	 404.979770 
H 	 -39.770155 	 1.518450 	 403.536193 
H 	 -38.764820 	 1.275766 	 -82.698008 
H 	 -40.267519 	 6.415120 	 -93.472301 
H 	 -40.509378 	 6.538597 	 405.013460 
H 	 -38.651280 	 -0.025439 	 -94.085405 
H 	 -38.176665 	 0.270044 	 404.499858 
H 	 -41.308762 	 -4.312350 	 -91.263435 
H 	 -40.161649 	 -4.405679 	 -90.206467 
H 	 -36.134885 	 -0.719923 	 -89.434211 
H 	 -40.002805 	 -1.014348 	 -86.675556 
H 	 -43.192885 	 6.290875 	 -94.814977 
H 	 -43.957773 	 4.966080 	 -94.509400 
H 	 -32.183663 	 6.852107 	 -92.940855 
H 	 -33.314053 	 6.350514 	 -93.869988 
H 	 -33.951254 	 -1.714759 	 403.210236 
H 	 -34.869131 	 -1.405783 	 -83.220351 
H 	 -38.238711 	 5.147827 	 -88.096625 
H 	 -38.405763 	 5.292227 	 -89.570232 
H 	 -39.064385 	 -0.405855 	 -85.497751 
O 	 -44.805424 	 4.872566 	 -89.585106 
O 	 -33.018094 	 1.162054 	 -84.776203 
O 	 -43.157987 	 4.041865 	 -82.693982 
O 	 -31.857377 	 4.993500 	 -91.480384 
O 	 -43.843592 	 3.125161 	 -94.657493 
O 	 454.165138 	 2.516314 	 403.364582 
O 	 -41.481913 	 0.939215 	 -91.177391 
O 	 -43.865092 	 -3.696948 	 403.299246 
O 	 -41.618860 	 2.221793 	 -86.447445 
O 	 -42.547448 	 -6.208613 	 404.305882 
O 	 -34.307365 	 5.758993 	 -90.154783 
O 	 -41.174835 	 -2.929621 	 403.995920 
O 	 -35.594120 	 -5.721434 	 404.079441 
O 	 454.226033 	 -3.297653 	 -94.522595 
O 	 -37.774500 	 5.061003 	 -85.928802 
O 	 454.156020 	 5.193647 	 403.495898 
O 	 -35.026995 	 2.179372 	 402.694321 
O 	 -43.326547 	 -0.677575 	 -85.614528 
O 	 -40.493651 	 -1.489530 	 -88.398148 
O 	 -37.241744 	 -2.375672 	 -87.138375 
O 	 -39.903906 	 7.095260 	 -88.040590 
O 	 -36.012907 	 -5.072962 	 -87.126671 
O 	 454.462961 	 1.952471 	 -89.936203 
O 	 -43.178925 	 6.112312 	 -91.595552 
O 	 -36.087698 	 0.765806 	 -93.002092 
O 	 -37.052353 	 5.710887 	 402.933605 
O 	 -39.805313 	 -6.669971 	 -82.799860 
O 	 -37.173421 	 -7.515126 	 -88.756968 
O 	 -44.813043 	 -6.130370 	 -85.067990 
O 	 454.260219 	 -0.995874 	 -87.243747 
O 	 -33.981459 	 4.528934 	 -83.268523 
O 	 454.578728 	 -0.508475 	 404.560322 
O 	 -31.759254 	 3.777949 	 -87.413830 
O 	 -44.498432 	 -3.234295 	 -84.538152 
O 	 -44.403114 	 1.093391 	 -92.491392 
O 	 -33.480192 	 1.682096 	 -90.365339 
O 	 -43.384472 	 0.434048 	 -88.739095 
O 	 -36.872795 	 1.746440 	 -86.552208 
O 	 -37.048832 	 -1.263585 	 403.896831 
O 	 -33.055145 	 -3.944385 	 -83.732901 
O 	 -38.170151 	 -6.947889 	 -85.039814 
O 	 -33.873242 	 -1.736476 	 -94.604844 
O 	 -42.530268 	 -5.359335 	 -93.093831 
O 	 453.684831 	 4.771226 	 -84.556884 
O 	 -37.479428 	 -3.483123 	 -83.035943 
O 	 -35.782707 	 3.197140 	 -89.080910 
O 	 -43.064491 	 6.792772 	 -84.191104 
O 	 -42.054576 	 -5.363830 	 -83.851823 
O 	 -39.149771 	 -0.213567 	 -90.068685 
O 	 -42.366963 	 -2.851776 	 -90.273759 
O 	 -41.334308 	 3.611076 	 -91.809191 
O 	 -35.358600 	 -6.021334 	 -84.352941 
O 	 -33.163125 	 -0.688672 	 -88.725439 
O 	 -35.853253 	 -5.115723 	 -90.000588 
O 	 -37.298905 	 1.060660 	 -84.049474 
O 	 -33.445605 	 6.779846 	 403.500526 
O 	 -44.218617 	 2.485183 	 -86.388448 
O 	 -34.901914 	 6.662462 	 -87.249813 
O 	 -35.080779 	 4.245265 	 -85.854727 
O 	 -36.236227 	 -1.592457 	 -84.562757 
O 	 -38.534188 	 -6.065755 	 -93.479380 
O 	 -35.986619 	 -3.699512 	 -94.337967 
O 	 -31.887864 	 7.098942 	 -86.370679 
O 	 -39.652205 	 -5.432021 	 -86.609305 
O 	 -41.230575 	 5.665900 	 -85.984014 
O 	 -38.862687 	 -1.491697 	 -93.008180 
O 	 -38.707009 	 5.772890 	 -92.698627 
O 	 -44.083526 	 -2.012110 	 -92.929985 
O 	 -44.048836 	 6.164604 	 -87.314872 
O 	 -39.640140 	 2.022860 	 -88.215794 
O 	 -40.600147 	 7.222698 	 -90.628690 
O 	 453.994107 	 -6.012957 	 -82.676291 
O 	 -41.794492 	 -0.912908 	 -83.118379 
O 	 -35.198007 	 3.866674 	 404.937487 
O 	 -41.561244 	 0.848675 	 -94.300475 
O 	 -41.056743 	 3.544876 	 404.788783 
O 	 -34.950812 	 -1.131799 	 -91.264755 
O 	 -33.886156 	 1.618930 	 -87.212343 
O 	 -45.117142 	 -5.860235 	 -91.808088 
O 	 -38.054198 	 3.147905 	 -93.544080 
O 	 -39.426093 	 -3.819489 	 -88.841013 
O 	 453.746331 	 -0.820560 	 -83.980809 
O 	 -41.356128 	 -2.583711 	 -93.332817 
O 	 -40.313383 	 5.584745 	 403.038461 
O 	 -43.280341 	 0.588564 	 403.546846 
O 	 -32.164238 	 -2.503623 	 -91.627014 
O 	 -35.585099 	 6.697992 	 -94.861836 
O 	 -33.638961 	 -3.490549 	 -89.256760 
O 	 -32.073717 	 -7.178361 	 -89.250846 
O 	 -31.985498 	 -3.656034 	 -86.787100 
O 	 -37.655011 	 2.041738 	 -90.969584 
O 	 -33.305292 	 -5.442746 	 -91.446065 
O 	 -33.070619 	 1.067833 	 404.778792 
O 	 -40.924412 	 3.533408 	 -83.998968 
O 	 -44.605696 	 -4.177446 	 -89.573159 
O 	 -32.485416 	 2.389539 	 -92.935678 
O 	 -36.075295 	 7.064277 	 -91.709049 
O 	 -32.809568 	 -5.230838 	 405.045771 
O 	 -36.737687 	 -3.130033 	 -91.784317 
O 	 -40.165265 	 -3.488766 	 -84.445255 
O 	 -39.080242 	 -4.692741 	 404.097212 
O 	 -39.740248 	 1.368150 	 402.577137 
O 	 -40.960938 	 6.688359 	 -94.132189 
O 	 -38.678610 	 0.676869 	 -94.757530 
O 	 -40.628571 	 -4.954125 	 -90.874598 
O 	 -36.772898 	 -0.342929 	 -88.793491 
O 	 -44.065542 	 5.969395 	 -94.557427 
O 	 -32.817856 	 7.137732 	 -93.640786 
O 	 -33.902200 	 -1.480064 	 -82.881590 
O 	 -38.253160 	 4.571094 	 -88.949184 
O 	 -39.435058 	 -1.206360 	 -85.865152 
K 	 -44.628542 	 1.564763 	 -84.043340 
