333
conformation = 2
H 	 -6.239264 	 4.018563 	 -187.049539 
H 	 -5.493739 	 5.363372 	 -186.364570 
H 	 5.361950 	 1.420960 	 -181.663096 
H 	 6.155252 	 0.222461 	 -182.137687 
H 	 -3.783985 	 4.217258 	 305.733052 
H 	 -4.082007 	 4.900509 	 -180.740092 
H 	 6.328976 	 5.039758 	 -188.625116 
H 	 -7.083566 	 5.119762 	 -188.324856 
H 	 -5.014824 	 2.524917 	 308.497801 
H 	 -5.439917 	 2.938760 	 307.028547 
H 	 -7.475536 	 2.196927 	 306.383140 
H 	 -6.980404 	 3.494726 	 305.759992 
H 	 -1.569377 	 0.467374 	 -188.659837 
H 	 -2.225574 	 1.928330 	 -188.940777 
H 	 -5.457032 	 -3.401800 	 306.412352 
H 	 -3.951090 	 -3.413674 	 305.943788 
H 	 -1.797497 	 2.219531 	 -184.694063 
H 	 -2.217465 	 2.839588 	 -183.422515 
H 	 -3.911468 	 -5.618866 	 306.057242 
H 	 -2.663045 	 -6.493380 	 306.346512 
H 	 4.344031 	 4.988245 	 -187.346813 
H 	 4.026744 	 6.146945 	 -188.316335 
H 	 -1.487107 	 -3.680191 	 306.338618 
H 	 -1.982279 	 -2.319363 	 305.646994 
H 	 3.312160 	 -5.572406 	 305.547256 
H 	 3.056466 	 -4.933114 	 307.060714 
H 	 -7.340765 	 -4.106684 	 307.808734 
H 	 -6.308908 	 -3.190034 	 308.739126 
H 	 2.201211 	 4.971434 	 -183.232229 
H 	 0.946957 	 5.913195 	 -183.196622 
H 	 7.188261 	 5.460443 	 305.992874 
H 	 -6.352027 	 5.532829 	 306.689232 
H 	 4.339511 	 3.021686 	 -180.393237 
H 	 3.252457 	 1.769200 	 -180.472552 
H 	 -3.619240 	 -0.820419 	 -182.503819 
H 	 -4.901939 	 -1.434625 	 -183.101867 
H 	 -0.880353 	 -0.921966 	 -186.637911 
H 	 -2.270845 	 -1.567317 	 -186.515680 
H 	 0.964521 	 -2.006531 	 -184.301131 
H 	 2.031784 	 -1.577950 	 -185.389271 
H 	 -1.363697 	 7.198916 	 -186.500692 
H 	 -1.040214 	 -7.016655 	 -185.078371 
H 	 2.363163 	 -4.325301 	 -184.740741 
H 	 2.501026 	 -5.829298 	 -184.957186 
H 	 -6.008399 	 1.583816 	 -186.850509 
H 	 -7.480538 	 1.962169 	 -187.418641 
H 	 -4.533101 	 6.007002 	 309.903512 
H 	 -4.759774 	 5.635057 	 -188.633691 
H 	 2.761689 	 1.092492 	 308.530206 
H 	 2.269781 	 1.154163 	 310.010499 
H 	 2.242581 	 4.747033 	 305.424611 
H 	 1.026878 	 5.625623 	 305.251734 
H 	 -0.162402 	 -6.853767 	 -181.178587 
H 	 -1.050185 	 -7.621230 	 304.999170 
H 	 2.394744 	 6.837815 	 -185.738734 
H 	 0.935343 	 7.222405 	 -186.131358 
H 	 -6.369434 	 -6.410111 	 -183.385669 
H 	 -6.403238 	 -6.029884 	 -181.877583 
H 	 -6.129747 	 -0.784887 	 -185.596378 
H 	 -6.426172 	 -0.335440 	 -184.162402 
H 	 5.060524 	 5.384305 	 -180.431700 
H 	 5.941687 	 4.269672 	 -181.151111 
H 	 -6.539161 	 -1.474971 	 306.857547 
H 	 -7.283135 	 -0.025126 	 306.814751 
H 	 6.972652 	 4.031228 	 -184.118200 
H 	 6.667003 	 3.085660 	 -185.239093 
H 	 -5.323278 	 -4.117032 	 -182.455985 
H 	 -5.058081 	 -3.319855 	 -181.227469 
H 	 -4.679089 	 1.081554 	 -189.374719 
H 	 -6.197317 	 1.465616 	 310.391949 
H 	 5.420399 	 0.764705 	 -187.724723 
H 	 4.801605 	 2.110533 	 -187.501819 
H 	 -3.971940 	 0.643410 	 -185.430942 
H 	 -3.579429 	 0.627152 	 -186.934116 
H 	 1.346780 	 1.711153 	 -184.692518 
H 	 2.853167 	 1.256609 	 -184.570602 
H 	 1.588470 	 -1.615542 	 307.163019 
H 	 1.714351 	 -1.943362 	 305.612680 
H 	 5.764282 	 -2.941484 	 -181.152554 
H 	 5.107851 	 -4.301044 	 -181.297305 
H 	 0.394972 	 -6.477759 	 -183.383886 
H 	 1.649489 	 -6.430902 	 -182.347600 
H 	 5.263304 	 -0.765561 	 307.861249 
H 	 6.020380 	 -2.100303 	 308.088870 
H 	 -3.721430 	 -5.265911 	 308.372076 
H 	 -3.034475 	 -6.159998 	 309.411341 
H 	 -6.839849 	 5.120125 	 -181.388132 
H 	 -7.360098 	 5.558791 	 -182.730727 
H 	 1.529318 	 -4.134952 	 305.272572 
H 	 0.676970 	 -3.603440 	 -181.000949 
H 	 3.513705 	 2.938415 	 -185.768653 
H 	 2.447663 	 3.730038 	 -186.425200 
H 	 -4.874670 	 -7.640733 	 -181.919613 
H 	 -3.492938 	 6.579374 	 -182.635665 
H 	 -2.356126 	 -5.859855 	 -180.920211 
H 	 -3.550551 	 -5.957732 	 -181.991899 
H 	 1.353974 	 -0.279213 	 -186.889167 
H 	 0.077039 	 -0.811130 	 -188.412024 
H 	 -3.898304 	 -3.412038 	 -187.239883 
H 	 -4.077003 	 -2.320724 	 -188.251733 
H 	 -1.540421 	 4.224433 	 310.484449 
H 	 -2.985520 	 4.126785 	 -188.938135 
H 	 4.229785 	 -6.620639 	 -182.464115 
H 	 3.610100 	 -5.367587 	 -182.700631 
H 	 5.511329 	 -1.551110 	 -186.402137 
H 	 6.755330 	 -0.727194 	 -185.867920 
H 	 3.874275 	 -4.611455 	 -187.086091 
H 	 2.817638 	 -5.642144 	 -186.833499 
H 	 2.048080 	 0.130121 	 -181.610389 
H 	 1.684510 	 1.255021 	 -182.689039 
H 	 6.174638 	 -7.358314 	 306.036235 
H 	 4.901730 	 6.737806 	 306.636516 
H 	 -5.732432 	 2.993894 	 -184.614648 
H 	 -4.240469 	 2.635055 	 -184.288845 
H 	 4.218935 	 5.706310 	 -184.612029 
H 	 4.397671 	 6.757694 	 -185.811255 
H 	 3.727632 	 3.288109 	 -183.390958 
H 	 4.318746 	 4.476393 	 -182.551100 
H 	 2.838116 	 -1.730073 	 -183.116869 
H 	 2.333091 	 -2.428145 	 -181.806189 
H 	 -0.263206 	 -5.749190 	 309.482103 
H 	 0.369493 	 -7.037789 	 309.007482 
H 	 3.703292 	 -3.023434 	 307.900132 
H 	 2.813462 	 -3.731053 	 309.026582 
H 	 -7.405285 	 6.790490 	 -184.830239 
H 	 6.223954 	 7.245361 	 -184.343008 
H 	 -0.798639 	 -4.862936 	 -183.452666 
H 	 -0.400184 	 -4.876532 	 -184.986006 
H 	 -1.711085 	 6.362627 	 -184.112112 
H 	 -1.536716 	 5.112519 	 -183.212996 
H 	 -0.644260 	 -2.035858 	 309.170869 
H 	 0.801436 	 -2.032121 	 309.940285 
H 	 1.213817 	 6.174479 	 309.926532 
H 	 0.575590 	 5.336728 	 308.889338 
H 	 -4.145691 	 -2.077741 	 309.074835 
H 	 -5.311325 	 -1.141369 	 309.155476 
H 	 -5.357663 	 6.582043 	 -184.078869 
H 	 -4.371635 	 5.516939 	 -184.578513 
H 	 -0.776035 	 1.371177 	 -186.538852 
H 	 -0.253152 	 2.882782 	 -186.207851 
H 	 -2.439219 	 6.909791 	 -188.547945 
H 	 -1.760066 	 -6.709701 	 -188.220676 
H 	 7.170549 	 -5.398486 	 -180.390557 
H 	 -6.329308 	 -5.582367 	 305.503362 
H 	 -2.080222 	 -0.177465 	 -180.786636 
H 	 -3.403632 	 -0.536938 	 305.060216 
H 	 3.749046 	 3.102039 	 306.703236 
H 	 3.509641 	 3.440272 	 308.193347 
H 	 -1.614265 	 0.495757 	 307.915773 
H 	 -2.617454 	 0.745604 	 309.091387 
H 	 -1.403338 	 3.255498 	 307.909516 
H 	 -2.730592 	 2.894362 	 307.257433 
H 	 4.949133 	 -1.498659 	 -188.943421 
H 	 4.021421 	 -0.420830 	 310.435335 
H 	 5.665559 	 0.855796 	 -185.186511 
H 	 5.374974 	 1.545034 	 -183.837868 
H 	 -5.276971 	 -5.493574 	 310.109643 
H 	 -5.898528 	 -6.751441 	 -189.001349 
H 	 1.066727 	 3.017492 	 309.849356 
H 	 0.793112 	 2.258851 	 308.445575 
H 	 -0.754833 	 -2.942300 	 -186.164738 
H 	 0.489623 	 -3.607852 	 -186.817562 
H 	 -6.778731 	 -1.663214 	 -181.761515 
H 	 7.102276 	 -1.014003 	 -180.787436 
H 	 -2.268345 	 -2.669871 	 308.094977 
H 	 -2.312993 	 -3.516380 	 309.340909 
H 	 -1.630283 	 4.931108 	 -180.311348 
H 	 -1.043149 	 4.959915 	 306.160843 
H 	 -5.104456 	 0.140186 	 306.255142 
H 	 -3.746873 	 0.571220 	 306.775544 
H 	 -7.208573 	 -2.324265 	 -188.737984 
H 	 6.878392 	 -3.475406 	 310.522383 
H 	 3.168351 	 -7.402496 	 307.085743 
H 	 3.015444 	 5.903339 	 307.138913 
H 	 6.059002 	 -3.640101 	 -186.175468 
H 	 5.846721 	 -3.440936 	 -187.728222 
H 	 6.592890 	 -6.609953 	 -187.540237 
H 	 6.490429 	 6.850976 	 -186.976991 
H 	 -7.124204 	 -2.971422 	 -184.421554 
H 	 6.913351 	 -3.758190 	 -183.433520 
H 	 2.011959 	 1.987346 	 -187.790246 
H 	 0.706506 	 1.348618 	 -188.394034 
H 	 4.784976 	 -5.650541 	 -188.947939 
H 	 5.905360 	 -5.853998 	 310.052004 
H 	 5.223609 	 1.334505 	 306.579900 
H 	 5.944542 	 1.610879 	 308.005488 
H 	 -1.397644 	 2.713902 	 -181.397182 
H 	 -2.770430 	 3.454005 	 -181.194277 
H 	 -5.457095 	 -4.807938 	 -186.459831 
H 	 -5.776390 	 -4.830638 	 -187.954181 
H 	 6.184608 	 2.307840 	 310.396428 
H 	 6.979117 	 3.276008 	 309.530897 
H 	 3.357472 	 -7.564455 	 309.852582 
H 	 2.637696 	 -7.104748 	 -188.718161 
H 	 6.406657 	 -6.147367 	 307.712017 
H 	 5.301915 	 -5.233946 	 307.086780 
H 	 2.976721 	 -2.460513 	 -189.052683 
H 	 2.367678 	 -3.842553 	 -188.753421 
H 	 -1.961943 	 -3.775855 	 -181.623312 
H 	 -1.205301 	 -2.592899 	 -182.324562 
H 	 -0.275788 	 -5.492563 	 305.940479 
H 	 0.171431 	 -5.055166 	 307.354479 
H 	 -0.813379 	 1.602551 	 305.892943 
H 	 0.268490 	 1.243583 	 -180.362866 
H 	 -1.281099 	 6.467342 	 308.890846 
H 	 -1.489821 	 6.578708 	 307.404091 
H 	 0.349805 	 -0.077481 	 308.307555 
H 	 0.946217 	 0.285190 	 306.955506 
H 	 -2.287197 	 -4.361544 	 -188.768453 
H 	 -1.191907 	 -4.403253 	 -187.715701 
H 	 2.781395 	 -0.873341 	 -187.002006 
H 	 -0.912906 	 -1.023236 	 -184.296940 
H 	 -4.138153 	 6.274990 	 307.560696 
H 	 -4.889395 	 4.995358 	 307.919887 
H 	 6.850480 	 6.893680 	 309.439474 
H 	 5.796269 	 6.286970 	 308.593546 
H 	 5.052182 	 -1.719388 	 305.567618 
H 	 4.242883 	 -1.398481 	 -180.730183 
H 	 0.756132 	 4.964109 	 -185.673553 
H 	 0.596892 	 5.265520 	 -187.199280 
H 	 -0.027210 	 -0.345834 	 -183.157848 
O 	 -5.762102 	 4.855227 	 -187.181492 
O 	 6.017672 	 1.153831 	 -182.372230 
O 	 -4.148158 	 4.044127 	 -180.247782 
O 	 7.195825 	 5.013491 	 -189.064791 
O 	 -4.799370 	 3.108652 	 307.741666 
O 	 -6.798864 	 2.511829 	 305.779784 
O 	 -2.433525 	 0.974103 	 -188.779467 
O 	 -4.841596 	 -3.683324 	 305.702502 
O 	 -2.574643 	 2.229531 	 -184.044368 
O 	 -3.497645 	 -6.224770 	 306.723350 
O 	 4.743969 	 5.787832 	 -187.735861 
O 	 -2.142515 	 -2.918847 	 306.404812 
O 	 3.428922 	 -5.718065 	 306.486985 
O 	 -6.737747 	 -3.323714 	 307.883913 
O 	 1.276745 	 5.049832 	 -183.497882 
O 	 -6.809974 	 5.193687 	 305.892532 
O 	 4.009379 	 2.183931 	 305.079646 
O 	 -4.296256 	 -0.693134 	 -183.196096 
O 	 -1.471099 	 -1.476202 	 -186.025394 
O 	 1.762401 	 -2.384198 	 -184.744964 
O 	 -0.833264 	 7.123753 	 -185.669269 
O 	 3.025183 	 -5.078675 	 -184.740111 
O 	 -6.513779 	 1.962352 	 -187.537561 
O 	 -4.149591 	 6.119420 	 -189.206431 
O 	 2.933639 	 0.773769 	 309.435911 
O 	 1.998292 	 5.722769 	 305.332683 
O 	 -0.764718 	 -6.687235 	 -180.392338 
O 	 1.867227 	 -7.474596 	 -186.353516 
O 	 -5.767742 	 -6.093680 	 -182.671762 
O 	 -6.679686 	 -1.002171 	 -184.802958 
O 	 5.038658 	 4.533032 	 -180.877377 
O 	 -6.395904 	 -0.518955 	 306.954184 
O 	 7.311523 	 3.798944 	 -185.008504 
O 	 -5.458060 	 -3.207257 	 -182.123448 
O 	 -5.382369 	 1.075338 	 309.928389 
O 	 5.555755 	 1.677912 	 -187.971596 
O 	 -4.353830 	 0.423396 	 -186.323878 
O 	 2.134718 	 1.730595 	 -184.135094 
O 	 1.992813 	 -1.265092 	 306.296051 
O 	 6.007251 	 -3.913244 	 -181.336079 
O 	 0.836136 	 -6.933979 	 -182.644983 
O 	 5.158077 	 -1.697937 	 307.792432 
O 	 -3.493023 	 -5.323333 	 309.299247 
O 	 -7.284866 	 4.756532 	 -182.166920 
O 	 1.566526 	 -3.496427 	 -180.610847 
O 	 3.250638 	 3.223464 	 -186.670125 
O 	 -4.029257 	 6.774093 	 -181.792754 
O 	 -3.038218 	 -5.366778 	 -181.451853 
O 	 -0.093513 	 -0.199422 	 -187.676121 
O 	 -3.335111 	 -2.842870 	 -187.886553 
O 	 -2.279835 	 3.600384 	 -189.392757 
O 	 3.660123 	 -6.022100 	 -181.936633 
O 	 5.870912 	 -0.667588 	 -186.321615 
O 	 3.161352 	 -5.117345 	 -187.607943 
O 	 1.722761 	 1.079025 	 -181.641371 
O 	 5.582412 	 6.802993 	 305.902842 
O 	 -5.172779 	 2.467964 	 -184.006752 
O 	 4.171868 	 6.674792 	 -184.844779 
O 	 3.950292 	 4.235565 	 -183.441049 
O 	 2.784212 	 -1.595242 	 -182.166953 
O 	 0.506232 	 -6.067400 	 308.917025 
O 	 3.055354 	 -3.688007 	 308.070087 
O 	 7.154403 	 7.100786 	 -183.979213 
O 	 -0.606508 	 -5.433595 	 -184.212949 
O 	 -2.206070 	 5.689611 	 -183.617556 
O 	 0.174828 	 -1.472635 	 309.388937 
O 	 0.344248 	 5.780952 	 309.709329 
O 	 -5.035809 	 -2.034876 	 309.474974 
O 	 -5.014975 	 6.173637 	 -184.917242 
O 	 -0.616854 	 2.033734 	 -185.804051 
O 	 -1.576919 	 7.227814 	 -188.215320 
O 	 -6.966936 	 -6.002460 	 -180.259823 
O 	 -2.767755 	 -0.901889 	 -180.728606 
O 	 3.860223 	 3.864286 	 307.340775 
O 	 -2.524737 	 0.838403 	 308.112436 
O 	 -2.006425 	 3.546095 	 307.193107 
O 	 4.093856 	 -1.112944 	 -188.836997 
O 	 5.138365 	 1.608658 	 -184.842278 
O 	 -6.054425 	 -5.855252 	 -189.421991 
O 	 0.993910 	 3.143630 	 308.867250 
O 	 -0.378635 	 -3.824059 	 -186.417823 
O 	 -7.205854 	 -0.795455 	 -181.546446 
O 	 -2.308366 	 -2.581541 	 309.089992 
O 	 -1.257575 	 5.602946 	 305.439429 
O 	 -4.251736 	 0.575064 	 305.946629 
O 	 6.861648 	 -2.516388 	 -189.233144 
O 	 3.440780 	 6.693354 	 307.535425 
O 	 5.376446 	 -3.485913 	 -186.858027 
O 	 6.987085 	 -7.212380 	 -186.839291 
O 	 7.071292 	 -3.639738 	 -184.370479 
O 	 1.375215 	 2.055705 	 -188.565603 
O 	 5.767596 	 -5.483176 	 -189.068058 
O 	 5.948812 	 1.056181 	 307.168236 
O 	 -1.920666 	 3.561486 	 -181.564114 
O 	 -5.585824 	 -4.180732 	 -187.179148 
O 	 6.564426 	 2.388905 	 309.471747 
O 	 2.978625 	 7.066069 	 -189.292543 
O 	 6.221535 	 -5.250365 	 307.449452 
O 	 2.283332 	 -3.109901 	 -189.382108 
O 	 -1.098411 	 -3.476786 	 -182.041998 
O 	 -0.058645 	 -4.686732 	 306.487815 
O 	 -0.691798 	 1.362106 	 304.949572 
O 	 -1.935408 	 6.713686 	 308.240769 
O 	 0.373763 	 0.695510 	 307.641519 
O 	 -1.599907 	 -4.943513 	 -188.485966 
O 	 2.258204 	 -0.344503 	 -186.351645 
O 	 -5.034156 	 5.971566 	 307.862553 
O 	 6.219537 	 7.166578 	 308.755647 
O 	 5.144582 	 -1.471766 	 -180.460422 
O 	 0.769731 	 4.554572 	 -186.529874 
O 	 -0.375607 	 -1.210045 	 -183.483316 
K 	 -5.584158 	 1.578200 	 -181.631087 
