333
conformation = 82
H 	 -2.615830 	 6.584846 	 -4.416434 
H 	 -2.261453 	 -7.072653 	 -3.635999 
H 	 -6.180307 	 3.928212 	 1.281477 
H 	 -5.184672 	 3.018737 	 0.401527 
H 	 -1.125920 	 6.670934 	 2.803382 
H 	 -1.000799 	 -7.145468 	 1.746971 
H 	 -5.660406 	 7.540805 	 -6.309170 
H 	 -4.186698 	 -7.324355 	 -5.876111 
H 	 -1.812391 	 5.193184 	 6.099906 
H 	 -2.445708 	 5.727786 	 4.790959 
H 	 -4.268632 	 4.806772 	 3.908164 
H 	 -3.870499 	 6.199267 	 3.401125 
H 	 1.525684 	 3.121322 	 -5.766147 
H 	 0.642369 	 4.332981 	 -6.037333 
H 	 -2.233539 	 -0.630101 	 3.836511 
H 	 -0.713492 	 -0.788194 	 3.329670 
H 	 1.231366 	 4.604320 	 -2.117114 
H 	 1.053954 	 4.939780 	 -0.578559 
H 	 -1.054934 	 -2.756857 	 3.823281 
H 	 0.354209 	 -3.448265 	 3.485521 
H 	 -7.399340 	 7.215877 	 -4.832436 
H 	 7.161647 	 -6.475559 	 -5.655652 
H 	 1.815573 	 -0.943054 	 3.764486 
H 	 1.007309 	 0.365125 	 3.064466 
H 	 6.404700 	 -3.019890 	 3.083802 
H 	 6.377991 	 -2.350096 	 4.495203 
H 	 -3.871819 	 -1.239105 	 5.091331 
H 	 -3.081292 	 -0.238778 	 6.170344 
H 	 5.098135 	 -7.266189 	 -0.839746 
H 	 4.244217 	 -6.051634 	 -0.950369 
H 	 -4.528542 	 -6.527408 	 3.737335 
H 	 -3.024736 	 -6.721024 	 4.209890 
H 	 -7.181046 	 5.482757 	 2.368294 
H 	 6.498305 	 4.543252 	 2.183461 
H 	 -0.109748 	 2.364272 	 -0.259808 
H 	 -1.157571 	 1.224006 	 -0.226816 
H 	 2.256844 	 1.613207 	 -3.815604 
H 	 0.879574 	 0.998023 	 -3.516161 
H 	 4.506779 	 0.687488 	 -1.625972 
H 	 5.662981 	 0.936961 	 -2.587469 
H 	 1.811987 	 -5.279307 	 -3.675005 
H 	 1.754610 	 -4.504865 	 -2.296145 
H 	 5.963595 	 -1.488241 	 -1.666334 
H 	 5.491485 	 -2.839946 	 -2.246795 
H 	 -2.704208 	 4.047198 	 -4.218932 
H 	 -4.122850 	 4.597259 	 -4.684929 
H 	 -1.329168 	 -5.706544 	 -6.995010 
H 	 -1.547404 	 -6.649489 	 -5.729012 
H 	 5.572967 	 2.877849 	 6.346045 
H 	 5.971716 	 3.737370 	 -7.462381 
H 	 5.218408 	 7.512028 	 3.497319 
H 	 4.079563 	 -6.488427 	 3.046412 
H 	 3.094489 	 -4.361034 	 1.501229 
H 	 2.251290 	 -4.879389 	 2.658826 
H 	 5.642122 	 -5.470795 	 -3.261586 
H 	 4.131633 	 -5.027446 	 -3.079619 
H 	 -3.434107 	 -4.192046 	 -0.438145 
H 	 -2.943047 	 -3.642833 	 0.873442 
H 	 -2.785317 	 1.699681 	 -3.131539 
H 	 -3.189351 	 2.148570 	 -1.705929 
H 	 -6.424121 	 -6.972138 	 2.289761 
H 	 -5.510439 	 7.267702 	 1.337286 
H 	 -3.596164 	 1.318172 	 4.837713 
H 	 -4.015848 	 2.830144 	 4.657046 
H 	 -4.619204 	 6.555541 	 -1.431639 
H 	 -5.438328 	 5.534082 	 -2.301278 
H 	 -2.641148 	 -1.480710 	 -0.029818 
H 	 -2.032586 	 -0.805752 	 1.303467 
H 	 -1.063713 	 3.702843 	 -7.006976 
H 	 -2.435682 	 4.248980 	 -6.688295 
H 	 -6.268099 	 3.477500 	 -4.871956 
H 	 -6.667149 	 4.944376 	 -4.745457 
H 	 -0.593588 	 3.258107 	 -2.850191 
H 	 -0.464059 	 2.896652 	 -4.432441 
H 	 4.676492 	 4.973082 	 -1.984075 
H 	 5.518162 	 3.853686 	 -2.402277 
H 	 5.564562 	 0.641070 	 4.257737 
H 	 4.743238 	 1.044383 	 3.023924 
H 	 -6.350270 	 -0.986325 	 1.921684 
H 	 -6.499945 	 -2.373767 	 1.203725 
H 	 3.855895 	 -3.981482 	 -0.415606 
H 	 5.211419 	 -3.924820 	 0.354984 
H 	 -6.306046 	 1.571164 	 5.199596 
H 	 -5.510342 	 0.323521 	 5.295496 
H 	 -0.364124 	 -3.492053 	 6.013242 
H 	 0.497821 	 -3.410682 	 7.293063 
H 	 -3.652709 	 -7.178590 	 1.647165 
H 	 -3.713122 	 -6.498353 	 0.217182 
H 	 4.141061 	 -1.218988 	 2.672979 
H 	 3.636166 	 -0.801088 	 1.306067 
H 	 6.641706 	 5.265182 	 -3.426559 
H 	 5.750002 	 6.454643 	 -3.940182 
H 	 -1.335219 	 -5.127453 	 0.369458 
H 	 0.098671 	 -5.763367 	 0.766486 
H 	 0.763904 	 -3.451908 	 1.528826 
H 	 -0.464653 	 -2.971047 	 0.727916 
H 	 4.661503 	 2.363163 	 -4.377042 
H 	 3.207090 	 1.670687 	 -5.524783 
H 	 -0.918539 	 -0.166848 	 -4.668583 
H 	 -0.055746 	 0.401600 	 -5.884119 
H 	 1.723435 	 6.729593 	 -6.623643 
H 	 0.246090 	 7.204230 	 -6.642637 
H 	 -7.321356 	 -4.196603 	 0.813701 
H 	 6.785856 	 -3.238489 	 -0.348179 
H 	 -6.122913 	 0.916766 	 -3.809325 
H 	 -5.082452 	 2.019522 	 -3.701075 
H 	 7.132725 	 -2.023793 	 -4.186092 
H 	 6.249821 	 -3.375168 	 -4.478369 
H 	 5.517702 	 2.682215 	 1.124998 
H 	 4.980668 	 3.885223 	 0.209771 
H 	 -5.676422 	 -4.743377 	 3.065219 
H 	 -6.565489 	 -5.407702 	 4.179324 
H 	 -2.714337 	 5.504925 	 -1.960228 
H 	 -1.230124 	 5.537688 	 -1.511310 
H 	 7.096931 	 -6.438694 	 -1.594291 
H 	 -7.279609 	 -5.965564 	 -2.953864 
H 	 -7.196825 	 6.358277 	 -1.307232 
H 	 -7.316084 	 7.062325 	 0.117217 
H 	 6.156962 	 0.878187 	 -0.372954 
H 	 5.677340 	 0.370546 	 1.003689 
H 	 3.368974 	 -2.623887 	 7.291966 
H 	 3.192422 	 -3.989176 	 6.458268 
H 	 7.132854 	 -0.643583 	 5.660636 
H 	 5.947401 	 -1.023680 	 6.547893 
H 	 -4.591213 	 -4.924619 	 -2.078530 
H 	 -5.625238 	 -5.281302 	 -0.920405 
H 	 2.512392 	 -1.912359 	 -0.734383 
H 	 2.767843 	 -2.051444 	 -2.242723 
H 	 1.525554 	 -6.258363 	 -1.230601 
H 	 1.594514 	 7.247565 	 -0.596676 
H 	 2.578830 	 0.568147 	 6.985083 
H 	 4.019183 	 0.441168 	 -7.266924 
H 	 4.080528 	 -6.085830 	 -7.035230 
H 	 4.033844 	 7.507326 	 6.903921 
H 	 -1.104484 	 0.676425 	 6.761619 
H 	 -2.157291 	 1.932875 	 6.925027 
H 	 -2.254114 	 -5.703538 	 -1.431614 
H 	 -0.825698 	 -6.339629 	 -1.625530 
H 	 3.103389 	 3.912413 	 -3.885830 
H 	 3.060112 	 5.531673 	 -3.635660 
H 	 0.860892 	 -5.458081 	 -5.886964 
H 	 1.760647 	 -4.157250 	 -5.561739 
H 	 -4.385165 	 -2.539470 	 2.130043 
H 	 -3.567525 	 -3.095906 	 3.229059 
H 	 1.467552 	 2.310775 	 2.128406 
H 	 0.044577 	 2.195587 	 2.582470 
H 	 6.868032 	 5.988139 	 4.167674 
H 	 6.169300 	 6.189498 	 5.556131 
H 	 1.530340 	 3.421731 	 5.280878 
H 	 0.948559 	 3.443464 	 6.721469 
H 	 1.500123 	 6.632713 	 5.532449 
H 	 0.242467 	 5.949708 	 5.070477 
H 	 -6.666094 	 1.141146 	 -6.462180 
H 	 7.199632 	 2.129372 	 -7.094261 
H 	 -6.163358 	 3.504320 	 -2.415450 
H 	 -6.454814 	 4.294401 	 -1.148930 
H 	 -2.142304 	 -3.303711 	 -6.917793 
H 	 -3.424093 	 -4.065203 	 -6.272695 
H 	 4.292654 	 5.168884 	 7.087725 
H 	 3.724479 	 5.278571 	 5.669753 
H 	 2.572228 	 -0.289345 	 -3.591969 
H 	 4.000687 	 -0.851202 	 -3.626173 
H 	 -3.308331 	 0.756105 	 0.604402 
H 	 -4.686399 	 1.230036 	 1.206840 
H 	 0.836653 	 0.101959 	 5.520622 
H 	 0.746216 	 -0.995245 	 6.551916 
H 	 1.964154 	 -6.981138 	 2.051589 
H 	 1.507062 	 7.312913 	 3.407865 
H 	 -1.435155 	 2.642118 	 4.018669 
H 	 -0.457497 	 3.791253 	 4.198692 
H 	 -3.802141 	 0.369172 	 -7.013405 
H 	 -5.030371 	 -0.590340 	 -6.821769 
H 	 6.657851 	 -4.519521 	 4.830407 
H 	 6.451981 	 -6.126656 	 4.965733 
H 	 -5.505044 	 -0.984060 	 -3.133259 
H 	 -5.424490 	 -1.087136 	 -4.602955 
H 	 -5.211071 	 -3.321812 	 -4.539336 
H 	 -5.121507 	 -4.847486 	 -5.000352 
H 	 -4.497143 	 -0.170720 	 -1.676618 
H 	 -5.104187 	 -1.192640 	 -0.804733 
H 	 5.137086 	 4.693047 	 -5.175587 
H 	 3.961298 	 3.837816 	 -5.805418 
H 	 -6.972688 	 -2.346895 	 -5.908257 
H 	 -6.010434 	 -3.281679 	 -6.796854 
H 	 -6.407780 	 3.858814 	 4.430925 
H 	 -5.544923 	 4.359400 	 5.648648 
H 	 2.148659 	 5.276956 	 1.425439 
H 	 0.658556 	 5.997842 	 1.211310 
H 	 -2.638797 	 -2.029897 	 -3.533590 
H 	 -2.543349 	 -2.264179 	 -5.083845 
H 	 -5.621124 	 4.623832 	 -7.077860 
H 	 -4.862884 	 5.893109 	 -7.402836 
H 	 5.936582 	 -5.333553 	 7.065833 
H 	 6.004417 	 -4.181211 	 -6.812408 
H 	 -5.208086 	 -3.416151 	 5.461817 
H 	 -6.191766 	 -2.544222 	 4.652912 
H 	 6.271204 	 -0.041460 	 -6.522543 
H 	 5.523735 	 -1.395680 	 -6.038014 
H 	 1.299868 	 -1.418518 	 1.098119 
H 	 1.771155 	 -0.012059 	 0.417748 
H 	 3.138345 	 -2.931907 	 3.713685 
H 	 3.671251 	 -2.255998 	 5.018617 
H 	 2.485453 	 4.611604 	 3.485858 
H 	 3.427356 	 3.945945 	 2.542918 
H 	 2.134720 	 -6.068827 	 6.619092 
H 	 1.525677 	 -5.695540 	 5.239056 
H 	 3.502873 	 2.514607 	 6.153076 
H 	 4.068284 	 2.617338 	 4.712635 
H 	 1.081419 	 -1.858024 	 -5.723858 
H 	 2.529377 	 -2.054798 	 -5.367742 
H 	 6.164037 	 1.836597 	 -4.666782 
H 	 2.157546 	 1.336101 	 -1.427987 
H 	 -0.803655 	 -5.970109 	 5.326993 
H 	 -1.626554 	 -7.258781 	 5.673749 
H 	 -4.982891 	 -6.087660 	 6.856087 
H 	 -6.384948 	 -5.473253 	 6.386471 
H 	 -7.208048 	 1.492917 	 2.891936 
H 	 -7.122237 	 1.161936 	 1.385694 
H 	 4.159751 	 7.496186 	 -3.031271 
H 	 4.355700 	 -6.741170 	 -4.242963 
H 	 2.408583 	 2.451404 	 -0.396800 
O 	 -2.574383 	 -7.331503 	 -4.558519 
O 	 -5.542764 	 3.900682 	 0.502324 
O 	 -0.760492 	 6.785122 	 1.927412 
O 	 -4.747229 	 7.538738 	 -6.651328 
O 	 -1.707639 	 5.886969 	 5.395652 
O 	 -3.609402 	 5.230443 	 3.333747 
O 	 0.602200 	 3.354146 	 -6.005534 
O 	 -1.602384 	 -1.187798 	 3.310327 
O 	 0.575669 	 4.802961 	 -1.386362 
O 	 -0.380978 	 -3.422030 	 4.132860 
O 	 -7.058202 	 -6.793503 	 -5.046160 
O 	 1.066520 	 -0.315283 	 3.840112 
O 	 6.834508 	 -3.028315 	 3.944835 
O 	 -3.480448 	 -0.348931 	 5.264765 
O 	 4.258439 	 -7.004633 	 -1.223466 
O 	 -3.672060 	 -6.890456 	 3.490577 
O 	 -7.620048 	 4.704962 	 2.776547 
O 	 -0.955667 	 2.076107 	 -0.664250 
O 	 1.723467 	 1.125561 	 -3.083114 
O 	 5.334924 	 0.294758 	 -1.955024 
O 	 2.133925 	 -5.341064 	 -2.710068 
O 	 6.222393 	 -2.433760 	 -1.736862 
O 	 -3.138207 	 4.625914 	 -4.805033 
O 	 -0.869124 	 -6.281785 	 -6.341023 
O 	 6.357929 	 3.340356 	 6.642885 
O 	 5.026323 	 -6.653329 	 2.880664 
O 	 2.493053 	 -3.990393 	 2.225314 
O 	 4.913435 	 -4.917796 	 -3.677533 
O 	 -2.681624 	 -3.702623 	 -0.045833 
O 	 -3.527393 	 1.725216 	 -2.526323 
O 	 -6.443824 	 7.143491 	 1.732148 
O 	 -3.218441 	 2.186948 	 4.588245 
O 	 -4.760252 	 6.250056 	 -2.342641 
O 	 -2.396688 	 -0.640361 	 0.393829 
O 	 -1.874989 	 3.901014 	 -7.477602 
O 	 -6.088102 	 4.363172 	 -5.239468 
O 	 -1.116433 	 3.096350 	 -3.707376 
O 	 5.550433 	 4.589833 	 -1.770874 
O 	 5.074831 	 1.429306 	 3.906065 
O 	 -5.872769 	 -1.614408 	 1.316404 
O 	 4.393321 	 -4.461679 	 0.220117 
O 	 -6.395569 	 0.636679 	 5.388501 
O 	 -0.325505 	 -3.076367 	 6.930572 
O 	 -3.959616 	 -7.290862 	 0.720390 
O 	 4.427621 	 -0.713255 	 1.843505 
O 	 6.484134 	 5.820359 	 -4.185324 
O 	 -0.801458 	 -5.442899 	 1.139430 
O 	 0.266226 	 -2.610518 	 1.286791 
O 	 3.002461 	 2.435912 	 -4.968588 
O 	 -0.003069 	 -0.163744 	 -5.109389 
O 	 0.833100 	 6.424614 	 -6.896280 
O 	 7.001358 	 -3.380399 	 0.614139 
O 	 -6.086316 	 1.905677 	 -3.693667 
O 	 6.531051 	 -2.481121 	 -4.883858 
O 	 5.096909 	 3.584086 	 1.199097 
O 	 -5.945914 	 -5.605926 	 3.372532 
O 	 -2.151101 	 5.369363 	 -1.231581 
O 	 7.161725 	 -5.592466 	 -2.151376 
O 	 7.121582 	 6.923345 	 -0.788272 
O 	 6.201740 	 1.134860 	 0.564127 
O 	 3.782188 	 -3.252790 	 6.691121 
O 	 6.228194 	 -0.951413 	 5.568646 
O 	 -4.688018 	 -5.268254 	 -1.176153 
O 	 2.588251 	 -2.608703 	 -1.455174 
O 	 1.070221 	 -6.782814 	 -0.551538 
O 	 3.468324 	 1.023331 	 7.053910 
O 	 3.563984 	 -6.605756 	 7.216130 
O 	 -1.925002 	 1.005496 	 7.215980 
O 	 -1.679288 	 -6.154252 	 -2.090172 
O 	 2.914062 	 4.645531 	 -3.228856 
O 	 1.752736 	 -5.125597 	 -5.608236 
O 	 -3.925313 	 -3.375076 	 2.343502 
O 	 0.738558 	 1.651264 	 2.048984 
O 	 6.790119 	 6.646016 	 4.948747 
O 	 0.675924 	 3.542896 	 5.761382 
O 	 1.172454 	 6.103877 	 4.783047 
O 	 -7.584494 	 1.391180 	 -6.425162 
O 	 -6.585842 	 4.341768 	 -2.104584 
O 	 -3.089345 	 -3.191753 	 -6.645372 
O 	 4.061551 	 5.872192 	 6.399634 
O 	 3.071686 	 -1.131857 	 -3.760411 
O 	 -3.923303 	 1.544321 	 0.717694 
O 	 0.673772 	 -0.016676 	 6.488122 
O 	 1.980736 	 -6.789623 	 3.035465 
O 	 -0.910277 	 3.298243 	 3.481003 
O 	 -4.655424 	 0.242456 	 -6.453486 
O 	 6.802920 	 -5.322690 	 5.374201 
O 	 -6.097492 	 -0.842205 	 -3.926845 
O 	 -4.933215 	 -4.231806 	 -4.248896 
O 	 -4.807887 	 -1.104228 	 -1.704987 
O 	 4.651267 	 4.521606 	 -6.021685 
O 	 -6.070259 	 -2.429467 	 -6.294956 
O 	 -5.553289 	 3.738456 	 4.880314 
O 	 1.674477 	 5.985819 	 0.908211 
O 	 -2.367462 	 -1.595812 	 -4.380509 
O 	 -5.276992 	 5.153777 	 7.031081 
O 	 5.931532 	 -5.178785 	 -6.850444 
O 	 -5.352200 	 -2.512162 	 5.149816 
O 	 5.560014 	 -0.713538 	 -6.722106 
O 	 2.017160 	 -0.906484 	 0.595091 
O 	 3.379305 	 -2.076930 	 4.104086 
O 	 2.451602 	 4.054229 	 2.697941 
O 	 1.303694 	 -5.627243 	 6.178166 
O 	 3.492188 	 3.112725 	 5.351480 
O 	 1.828813 	 -2.452479 	 -5.933473 
O 	 5.630035 	 2.372611 	 -4.056675 
O 	 -1.706379 	 -6.313879 	 5.399928 
O 	 -5.459381 	 -5.295893 	 6.560942 
O 	 -6.596910 	 1.163786 	 2.180462 
O 	 4.122382 	 7.245346 	 -3.957588 
O 	 2.594570 	 1.540293 	 -0.564211 
K 	 -2.440841 	 4.139165 	 1.063094 
