333
conformation = 11
H 	 -2.948470 	 6.829491 	 -4.234417 
H 	 -2.424769 	 -6.788096 	 -3.641763 
H 	 -6.348493 	 4.163472 	 0.973239 
H 	 -5.307266 	 3.052300 	 0.437073 
H 	 -0.619820 	 7.047617 	 3.305713 
H 	 -1.000540 	 -7.098220 	 2.027342 
H 	 -5.340596 	 -7.104515 	 -5.842441 
H 	 -3.789464 	 -6.954507 	 -5.769125 
H 	 -1.849075 	 5.359398 	 6.085977 
H 	 -2.363327 	 5.730997 	 4.689324 
H 	 -4.283886 	 4.965275 	 3.958704 
H 	 -3.793005 	 6.320677 	 3.442662 
H 	 1.551560 	 3.270994 	 -5.906677 
H 	 1.059697 	 4.674225 	 -6.175584 
H 	 -2.313171 	 -0.770383 	 4.013409 
H 	 -0.767204 	 -0.427698 	 3.522323 
H 	 1.307957 	 5.060248 	 -2.027188 
H 	 0.854706 	 5.800994 	 -0.725434 
H 	 -0.774901 	 -2.766372 	 3.665747 
H 	 0.537344 	 -3.625117 	 3.921822 
H 	 -7.456324 	 -7.102921 	 -4.638709 
H 	 7.131139 	 -5.907629 	 -5.560616 
H 	 1.697262 	 -0.838856 	 3.983773 
H 	 1.102360 	 0.489314 	 3.175985 
H 	 6.414329 	 -2.691335 	 3.102780 
H 	 6.268067 	 -2.202838 	 4.619211 
H 	 -4.158993 	 -1.254760 	 5.463532 
H 	 -3.128347 	 -0.168061 	 6.309509 
H 	 5.399920 	 -7.127366 	 -0.644346 
H 	 4.198467 	 -6.172249 	 -0.433000 
H 	 -4.544266 	 -6.429985 	 3.543131 
H 	 -3.210029 	 -6.532646 	 4.301277 
H 	 -7.502114 	 5.853867 	 2.207317 
H 	 6.428299 	 4.574929 	 2.125392 
H 	 -0.400104 	 2.065276 	 0.119504 
H 	 -1.670409 	 1.362804 	 -0.388518 
H 	 2.245283 	 1.918445 	 -4.055636 
H 	 0.860332 	 1.117310 	 -3.785601 
H 	 4.112033 	 0.742020 	 -1.699331 
H 	 5.218274 	 1.133288 	 -2.658724 
H 	 1.861224 	 -4.794283 	 -3.838682 
H 	 2.197708 	 -4.186084 	 -2.391228 
H 	 5.553509 	 -1.554308 	 -1.997705 
H 	 5.701973 	 -3.083458 	 -2.267442 
H 	 -2.888000 	 4.343507 	 -4.018529 
H 	 -4.275170 	 4.773543 	 -4.745399 
H 	 -1.366423 	 -6.229343 	 -7.360801 
H 	 -1.502310 	 -6.436382 	 -5.800461 
H 	 5.874358 	 3.864109 	 6.062827 
H 	 5.401005 	 3.973878 	 -7.395082 
H 	 5.349819 	 7.601585 	 3.124315 
H 	 4.194254 	 -6.346084 	 2.644784 
H 	 3.031332 	 -4.016619 	 1.489674 
H 	 2.189561 	 -4.780024 	 2.472895 
H 	 5.443778 	 -5.270666 	 -2.989400 
H 	 4.047689 	 -4.840141 	 -3.480819 
H 	 -3.139306 	 -3.622120 	 -0.757533 
H 	 -3.206885 	 -3.192217 	 0.752901 
H 	 -2.976900 	 1.985395 	 -2.986490 
H 	 -3.303146 	 2.509336 	 -1.523788 
H 	 -6.546023 	 -6.680469 	 2.284427 
H 	 -5.713943 	 7.191755 	 1.514367 
H 	 -3.365422 	 1.367127 	 4.363129 
H 	 -4.060856 	 2.715944 	 4.490425 
H 	 -4.784976 	 6.782373 	 -1.436336 
H 	 -5.079588 	 5.850184 	 -2.541570 
H 	 -2.393376 	 -1.332598 	 0.135172 
H 	 -1.942061 	 -0.519852 	 1.484702 
H 	 -1.453145 	 3.847158 	 -6.742065 
H 	 -2.886113 	 4.168197 	 -6.831406 
H 	 -6.351651 	 3.496489 	 -5.051548 
H 	 -6.968868 	 4.991382 	 -4.974432 
H 	 -0.811670 	 3.309591 	 -2.788596 
H 	 -0.473389 	 3.559649 	 -4.260696 
H 	 4.560860 	 4.573557 	 -2.066046 
H 	 5.972877 	 3.958087 	 -1.975579 
H 	 4.698935 	 1.247267 	 4.688321 
H 	 4.804140 	 0.922095 	 3.252575 
H 	 -5.844328 	 -0.177158 	 1.422214 
H 	 -6.679177 	 -1.401922 	 1.356076 
H 	 3.637715 	 -3.556629 	 -0.665886 
H 	 4.919105 	 -3.781427 	 0.340333 
H 	 -6.396891 	 2.051277 	 5.512129 
H 	 -5.712966 	 0.637338 	 5.715195 
H 	 -0.418741 	 -2.469054 	 5.871258 
H 	 0.109220 	 -3.459093 	 6.991369 
H 	 -3.662067 	 -6.873491 	 1.300481 
H 	 -4.181937 	 -6.590651 	 -0.145834 
H 	 4.657736 	 -1.211844 	 2.811371 
H 	 3.790373 	 -0.778585 	 1.716013 
H 	 6.740619 	 5.816437 	 -3.064164 
H 	 5.583872 	 6.530767 	 -3.983815 
H 	 -1.703304 	 -4.795252 	 0.809677 
H 	 -0.435973 	 -5.419997 	 0.014243 
H 	 0.838925 	 -3.135271 	 1.630448 
H 	 -0.425606 	 -3.186530 	 0.775180 
H 	 4.589864 	 2.515263 	 -4.236294 
H 	 3.244370 	 2.075204 	 -5.793583 
H 	 -0.737594 	 -0.702433 	 -4.758185 
H 	 -0.845294 	 0.511532 	 -5.649558 
H 	 1.596202 	 7.076315 	 -6.852710 
H 	 0.130189 	 6.960032 	 -6.408537 
H 	 -7.556594 	 -3.919196 	 0.331391 
H 	 6.606210 	 -2.560203 	 0.030745 
H 	 -6.330499 	 1.218380 	 -3.742786 
H 	 -5.050128 	 1.912944 	 -3.151819 
H 	 7.090197 	 -1.779654 	 -4.439477 
H 	 5.909559 	 -2.817889 	 -4.260991 
H 	 5.142047 	 2.916767 	 0.976770 
H 	 4.981321 	 4.197154 	 0.131908 
H 	 -5.500528 	 -4.538545 	 3.651708 
H 	 -6.814904 	 -5.332554 	 4.214074 
H 	 -2.554081 	 5.894434 	 -1.927266 
H 	 -1.041993 	 5.298659 	 -1.534619 
H 	 7.283917 	 -6.397687 	 -2.072198 
H 	 -7.296327 	 -5.286919 	 -3.085361 
H 	 6.777559 	 6.145138 	 -0.801698 
H 	 -7.442219 	 7.278764 	 0.148337 
H 	 6.021220 	 1.073678 	 -0.473392 
H 	 5.510196 	 0.456957 	 0.837302 
H 	 3.110974 	 -2.762876 	 7.140578 
H 	 3.618631 	 -4.214825 	 6.564147 
H 	 6.918159 	 -0.162996 	 5.587647 
H 	 5.995760 	 -0.907784 	 6.612955 
H 	 -4.171180 	 -5.344537 	 -2.107790 
H 	 -5.544753 	 -4.957302 	 -1.365439 
H 	 2.349815 	 -1.945075 	 -0.768630 
H 	 2.833083 	 -1.997941 	 -2.282851 
H 	 1.516349 	 -5.806983 	 -1.464218 
H 	 1.620859 	 -6.961387 	 -0.410846 
H 	 2.615653 	 0.743506 	 6.725135 
H 	 4.051652 	 0.724493 	 7.321998 
H 	 4.362800 	 -5.891582 	 -7.374233 
H 	 3.723940 	 -6.838797 	 6.450088 
H 	 -0.941130 	 0.722573 	 6.711706 
H 	 -2.195596 	 1.689946 	 6.770761 
H 	 -2.143283 	 -5.476923 	 -1.461337 
H 	 -1.240456 	 -6.613847 	 -1.881518 
H 	 2.334592 	 4.176338 	 -3.796122 
H 	 2.939668 	 5.632952 	 -3.572927 
H 	 0.818186 	 -5.291877 	 -5.889252 
H 	 1.473583 	 -3.863029 	 -5.573359 
H 	 -4.488788 	 -2.511461 	 2.354669 
H 	 -3.220009 	 -2.740838 	 2.980320 
H 	 1.053526 	 2.644250 	 1.937028 
H 	 -0.211899 	 2.268506 	 2.632746 
H 	 6.975335 	 5.912176 	 4.333434 
H 	 6.728531 	 6.389630 	 5.782135 
H 	 1.604884 	 3.422385 	 5.606865 
H 	 0.501754 	 3.664285 	 6.629301 
H 	 1.702144 	 5.969574 	 5.478457 
H 	 0.470511 	 5.658690 	 4.845031 
H 	 -6.723161 	 1.258311 	 -6.304448 
H 	 7.181957 	 2.357549 	 -6.879638 
H 	 -6.309919 	 3.593125 	 -2.531087 
H 	 -6.360628 	 4.382423 	 -1.192931 
H 	 -2.131101 	 -2.859456 	 -7.349214 
H 	 -2.694595 	 -3.835649 	 -6.272718 
H 	 4.144498 	 5.809361 	 7.369420 
H 	 4.118953 	 5.081585 	 6.071276 
H 	 2.427968 	 -0.049205 	 -3.469519 
H 	 3.710571 	 -0.801505 	 -3.995968 
H 	 -3.542654 	 1.199023 	 0.796738 
H 	 -4.545536 	 1.825571 	 1.912547 
H 	 0.787382 	 0.079873 	 5.656992 
H 	 0.755922 	 -0.694162 	 6.944295 
H 	 1.648025 	 7.602025 	 2.443484 
H 	 2.112830 	 -6.970951 	 3.857187 
H 	 -1.850490 	 2.826264 	 3.660019 
H 	 -0.529367 	 3.245095 	 4.398328 
H 	 -3.992865 	 0.498400 	 -6.181568 
H 	 -4.785566 	 -0.628956 	 -6.729249 
H 	 6.342312 	 -4.510958 	 4.704610 
H 	 6.176087 	 -6.153296 	 4.718543 
H 	 -5.587329 	 -0.711864 	 -3.490858 
H 	 -5.691490 	 -0.552901 	 -4.930252 
H 	 -5.235190 	 -3.806557 	 -4.823095 
H 	 -5.141368 	 -5.222556 	 -4.197132 
H 	 -4.021784 	 -0.106957 	 -1.723744 
H 	 -4.889550 	 -0.796464 	 -0.718192 
H 	 5.287705 	 4.889050 	 -5.237316 
H 	 3.878504 	 4.230151 	 -5.466526 
H 	 -6.937222 	 -2.855551 	 -6.212729 
H 	 -5.751935 	 -2.885940 	 -7.257378 
H 	 -6.498962 	 4.154360 	 4.198507 
H 	 -5.719487 	 4.488964 	 5.591836 
H 	 1.770005 	 5.520616 	 1.241329 
H 	 0.310629 	 6.263221 	 1.450349 
H 	 -2.299019 	 -2.087638 	 -3.847686 
H 	 -2.710406 	 -1.849843 	 -5.247740 
H 	 -5.501658 	 5.161052 	 -6.949169 
H 	 -4.919472 	 6.183544 	 7.085091 
H 	 6.562869 	 -4.675807 	 -7.427729 
H 	 5.779852 	 -4.272336 	 -6.172710 
H 	 -5.291631 	 -3.317604 	 5.379730 
H 	 -6.410906 	 -2.453716 	 4.685015 
H 	 6.157045 	 0.346091 	 -6.439387 
H 	 5.528225 	 -1.088305 	 -6.064300 
H 	 1.215425 	 -1.012841 	 1.009749 
H 	 1.984097 	 0.284467 	 0.309679 
H 	 2.915935 	 -2.628929 	 3.500846 
H 	 3.433545 	 -2.276360 	 4.960354 
H 	 2.471933 	 4.305073 	 3.541791 
H 	 3.405898 	 4.114222 	 2.397563 
H 	 1.974631 	 -5.691436 	 6.545254 
H 	 1.709310 	 -5.559421 	 4.981294 
H 	 3.584825 	 2.794279 	 5.930822 
H 	 3.996702 	 3.081109 	 4.444112 
H 	 0.937115 	 -1.510130 	 -6.191887 
H 	 2.083467 	 -1.597335 	 -5.159535 
H 	 6.146549 	 2.191757 	 -4.370442 
H 	 2.206317 	 1.809267 	 -1.553302 
H 	 -0.972968 	 -5.763865 	 5.174207 
H 	 -1.750337 	 -7.109650 	 5.461016 
H 	 -4.871292 	 -5.254508 	 7.045776 
H 	 -6.060290 	 -5.724103 	 6.068849 
H 	 -6.625991 	 1.132106 	 3.144320 
H 	 -7.532868 	 1.403033 	 1.822919 
H 	 3.993005 	 -6.908134 	 -3.054397 
H 	 3.822573 	 -6.782390 	 -4.509157 
H 	 3.154173 	 2.426634 	 -0.382207 
O 	 -2.593187 	 7.698608 	 -4.507958 
O 	 -5.702286 	 3.988264 	 0.302999 
O 	 -0.929652 	 6.861700 	 2.361384 
O 	 -4.551757 	 -7.096190 	 -6.406826 
O 	 -1.633929 	 5.954131 	 5.321957 
O 	 -3.623028 	 5.337578 	 3.341251 
O 	 0.729053 	 3.740907 	 -6.096569 
O 	 -1.642764 	 -0.884466 	 3.276315 
O 	 0.596677 	 5.040879 	 -1.367617 
O 	 -0.338727 	 -3.381569 	 4.278133 
O 	 -7.000654 	 -6.337139 	 -5.082216 
O 	 1.042017 	 -0.116946 	 3.972112 
O 	 6.628696 	 -2.904167 	 4.055128 
O 	 -3.556420 	 -0.461799 	 5.451112 
O 	 4.430931 	 -7.010569 	 -0.864049 
O 	 -3.631843 	 -6.883541 	 3.479636 
O 	 7.192718 	 4.999358 	 2.681541 
O 	 -1.107536 	 2.150540 	 -0.543143 
O 	 1.725184 	 1.323644 	 -3.304831 
O 	 4.991454 	 0.448123 	 -2.055137 
O 	 2.295774 	 -4.999499 	 -2.945023 
O 	 6.198173 	 -2.252691 	 -2.039806 
O 	 -3.315840 	 4.768557 	 -4.854411 
O 	 -0.961935 	 -5.973066 	 -6.510854 
O 	 6.132891 	 3.583027 	 6.962093 
O 	 5.155193 	 -6.373504 	 2.912921 
O 	 2.408178 	 -3.840967 	 2.277748 
O 	 5.039447 	 -4.715337 	 -3.678740 
O 	 -2.600960 	 -3.328038 	 0.014919 
O 	 -3.537866 	 1.826919 	 -2.182005 
O 	 -6.657729 	 7.350629 	 1.817474 
O 	 -3.198147 	 2.313431 	 4.542846 
O 	 -4.462399 	 6.585835 	 -2.336744 
O 	 -2.286054 	 -0.426734 	 0.531199 
O 	 -2.181084 	 3.922509 	 -7.422903 
O 	 -6.163022 	 4.504818 	 -5.282554 
O 	 -1.164444 	 3.259760 	 -3.663675 
O 	 5.357057 	 4.574179 	 -1.482628 
O 	 5.164796 	 1.557948 	 3.871834 
O 	 -5.754548 	 -1.140570 	 1.348413 
O 	 4.056221 	 -4.137299 	 0.041068 
O 	 -6.557002 	 1.068697 	 5.374882 
O 	 -0.315615 	 -2.554490 	 6.892105 
O 	 -4.094881 	 7.600603 	 0.529487 
O 	 4.727769 	 -0.658313 	 2.030744 
O 	 6.431193 	 6.007761 	 -4.007534 
O 	 -0.847997 	 -5.280545 	 0.898038 
O 	 0.168928 	 -2.540495 	 1.227923 
O 	 3.058161 	 2.601087 	 -4.986125 
O 	 -0.146816 	 -0.033076 	 -5.188078 
O 	 0.873971 	 6.435500 	 -6.737235 
O 	 6.868760 	 -3.203519 	 0.717349 
O 	 -5.843873 	 2.122565 	 -3.646747 
O 	 6.370248 	 -2.297943 	 -4.918913 
O 	 4.923757 	 3.870631 	 1.032383 
O 	 -6.122454 	 -5.314277 	 3.475037 
O 	 -2.004063 	 5.312584 	 -1.298715 
O 	 -7.603950 	 -5.421734 	 -2.171352 
O 	 7.137604 	 7.070893 	 -0.783492 
O 	 5.989668 	 1.231244 	 0.517571 
O 	 3.682888 	 -3.242486 	 6.499935 
O 	 6.229216 	 -0.883297 	 5.634242 
O 	 -4.573589 	 -4.983640 	 -1.286500 
O 	 2.560232 	 -2.610573 	 -1.528918 
O 	 0.992090 	 -6.427783 	 -0.884915 
O 	 3.354050 	 1.320915 	 6.972659 
O 	 3.503807 	 -6.310017 	 7.275550 
O 	 -1.873673 	 0.821160 	 7.046978 
O 	 -1.830727 	 -5.919996 	 -2.232198 
O 	 2.583140 	 4.836106 	 -3.137604 
O 	 1.618049 	 -4.858827 	 -5.556171 
O 	 -3.794874 	 -3.196421 	 2.395961 
O 	 0.424475 	 1.899713 	 1.968766 
O 	 7.007669 	 6.688382 	 4.914753 
O 	 0.652571 	 3.673323 	 5.676393 
O 	 1.152240 	 6.360115 	 4.767903 
O 	 7.264025 	 1.676748 	 -6.197079 
O 	 -6.563358 	 4.442804 	 -2.120381 
O 	 -2.918036 	 -3.041384 	 -6.719777 
O 	 4.155705 	 5.969015 	 6.430865 
O 	 2.787047 	 -0.997451 	 -3.771973 
O 	 -4.040464 	 1.987902 	 1.079223 
O 	 0.854021 	 0.230198 	 6.630770 
O 	 1.895205 	 -6.503706 	 3.019408 
O 	 -1.060875 	 3.412102 	 3.525838 
O 	 -4.839836 	 0.323169 	 -6.542104 
O 	 6.638465 	 -5.374220 	 5.123224 
O 	 -6.309302 	 -0.672103 	 -4.174270 
O 	 -4.768393 	 -4.342889 	 -4.175103 
O 	 -4.677925 	 -0.843144 	 -1.713226 
O 	 4.560782 	 4.853321 	 -5.892766 
O 	 -6.003849 	 -2.602948 	 -6.358056 
O 	 -5.746051 	 3.890176 	 4.760465 
O 	 1.307757 	 6.342082 	 1.061083 
O 	 -2.382930 	 -1.361709 	 -4.489794 
O 	 -5.176015 	 5.212020 	 7.042917 
O 	 6.130993 	 -5.016469 	 -6.638373 
O 	 -5.488316 	 -2.402327 	 5.024774 
O 	 5.484200 	 -0.321736 	 -6.704590 
O 	 2.039801 	 -0.671933 	 0.631920 
O 	 3.142653 	 -1.876963 	 4.080732 
O 	 2.472872 	 4.190211 	 2.569913 
O 	 1.259845 	 -5.403110 	 5.861656 
O 	 3.529859 	 3.488339 	 5.221870 
O 	 1.589869 	 -2.138012 	 -5.792348 
O 	 5.445679 	 2.477483 	 -3.736122 
O 	 -1.847631 	 -6.115085 	 5.414079 
O 	 -5.499719 	 -4.954724 	 6.342962 
O 	 -6.594356 	 1.335248 	 2.192703 
O 	 3.969789 	 7.402452 	 -3.873926 
O 	 2.766700 	 1.613005 	 -0.778107 
K 	 -2.416524 	 4.378040 	 1.031272 
