333
conformation = 2
H 	 -46.779805 	 4.018563 	 -89.451942 
H 	 -46.034280 	 5.363372 	 -88.766973 
H 	 -35.178591 	 1.420960 	 -84.065498 
H 	 -34.385289 	 0.222461 	 -84.540090 
H 	 -44.324526 	 4.217258 	 403.330649 
H 	 -44.622548 	 4.900509 	 -83.142495 
H 	 -34.211565 	 5.039758 	 -91.027519 
H 	 452.375893 	 5.119762 	 -90.727258 
H 	 -45.555364 	 2.524917 	 -93.904602 
H 	 -45.980457 	 2.938760 	 404.626144 
H 	 451.983924 	 2.196927 	 403.980737 
H 	 452.479055 	 3.494726 	 403.357590 
H 	 -42.109917 	 0.467374 	 -91.062239 
H 	 -42.766114 	 1.928330 	 -91.343180 
H 	 -45.997572 	 -3.401800 	 404.009950 
H 	 -44.491630 	 -3.413674 	 403.541385 
H 	 -42.338038 	 2.219531 	 -87.096465 
H 	 -42.758006 	 2.839588 	 -85.824918 
H 	 -44.452009 	 -5.618866 	 403.654840 
H 	 -43.203586 	 -6.493380 	 403.944110 
H 	 -36.196509 	 4.988245 	 -89.749215 
H 	 -36.513796 	 6.146945 	 -90.718737 
H 	 -42.027648 	 -3.680191 	 403.936215 
H 	 -42.522820 	 -2.319363 	 403.244591 
H 	 -37.228380 	 -5.572406 	 403.144854 
H 	 -37.484075 	 -4.933114 	 404.658311 
H 	 452.118695 	 -4.106684 	 -94.593668 
H 	 -46.849449 	 -3.190034 	 -93.663276 
H 	 -38.339329 	 4.971434 	 -85.634631 
H 	 -39.593583 	 5.913195 	 -85.599024 
H 	 -33.352280 	 5.460443 	 403.590471 
H 	 453.107432 	 5.532829 	 404.286829 
H 	 -36.201030 	 3.021686 	 -82.795639 
H 	 -37.288083 	 1.769200 	 -82.874955 
H 	 -44.159781 	 -0.820419 	 -84.906222 
H 	 -45.442480 	 -1.434625 	 -85.504269 
H 	 -41.420893 	 -0.921966 	 -89.040313 
H 	 -42.811385 	 -1.567317 	 -88.918082 
H 	 -39.576019 	 -2.006531 	 -86.703534 
H 	 -38.508756 	 -1.577950 	 -87.791673 
H 	 -41.904238 	 7.198916 	 -88.903095 
H 	 -41.580755 	 -7.016655 	 -87.480774 
H 	 -38.177377 	 -4.325301 	 -87.143143 
H 	 -38.039514 	 -5.829298 	 -87.359588 
H 	 -46.548939 	 1.583816 	 -89.252911 
H 	 451.978922 	 1.962169 	 -89.821043 
H 	 -45.073642 	 6.007002 	 -92.498890 
H 	 -45.300315 	 5.635057 	 -91.036093 
H 	 -37.778852 	 1.092492 	 -93.872197 
H 	 -38.270759 	 1.154163 	 -92.391903 
H 	 -38.297960 	 4.747033 	 403.022208 
H 	 -39.513662 	 5.625623 	 402.849332 
H 	 -40.702943 	 -6.853767 	 -83.580989 
H 	 -41.590726 	 -7.621230 	 402.596768 
H 	 -38.145797 	 6.837815 	 -88.141136 
H 	 -39.605197 	 7.222405 	 -88.533760 
H 	 453.090026 	 -6.410111 	 -85.788072 
H 	 453.056222 	 -6.029884 	 -84.279985 
H 	 -46.670288 	 -0.784887 	 -87.998780 
H 	 453.033288 	 -0.335440 	 -86.564804 
H 	 -35.480017 	 5.384305 	 -82.834102 
H 	 -34.598854 	 4.269672 	 -83.553514 
H 	 452.920299 	 -1.474971 	 404.455144 
H 	 452.176325 	 -0.025126 	 404.412348 
H 	 -33.567889 	 4.031228 	 -86.520603 
H 	 -33.873538 	 3.085660 	 -87.641495 
H 	 -45.863818 	 -4.117032 	 -84.858388 
H 	 -45.598621 	 -3.319855 	 -83.629871 
H 	 -45.219630 	 1.081554 	 -91.777121 
H 	 -46.737858 	 1.465616 	 -92.010454 
H 	 -35.120141 	 0.764705 	 -90.127126 
H 	 -35.738936 	 2.110533 	 -89.904221 
H 	 -44.512480 	 0.643410 	 -87.833345 
H 	 -44.119969 	 0.627152 	 -89.336518 
H 	 -39.193760 	 1.711153 	 -87.094921 
H 	 -37.687374 	 1.256609 	 -86.973004 
H 	 -38.952070 	 -1.615542 	 404.760617 
H 	 -38.826189 	 -1.943362 	 403.210278 
H 	 -34.776259 	 -2.941484 	 -83.554956 
H 	 -35.432689 	 -4.301044 	 -83.699708 
H 	 -40.145568 	 -6.477759 	 -85.786289 
H 	 -38.891052 	 -6.430902 	 -84.750002 
H 	 -35.277237 	 -0.765561 	 -94.541154 
H 	 -34.520160 	 -2.100303 	 -94.313532 
H 	 -44.261970 	 -5.265911 	 -94.030326 
H 	 -43.575016 	 -6.159998 	 -92.991062 
H 	 452.619611 	 5.120125 	 -83.790534 
H 	 452.099361 	 5.558791 	 -85.133129 
H 	 -39.011223 	 -4.134952 	 402.870170 
H 	 -39.863570 	 -3.603440 	 -83.403351 
H 	 -37.026836 	 2.938415 	 -88.171055 
H 	 -38.092878 	 3.730038 	 -88.827602 
H 	 -45.415210 	 -7.640733 	 -84.322016 
H 	 -44.033479 	 6.579374 	 -85.038067 
H 	 -42.896666 	 -5.859855 	 -83.322614 
H 	 -44.091091 	 -5.957732 	 -84.394301 
H 	 -39.186567 	 -0.279213 	 -89.291569 
H 	 -40.463501 	 -0.811130 	 -90.814426 
H 	 -44.438844 	 -3.412038 	 -89.642286 
H 	 -44.617544 	 -2.320724 	 -90.654135 
H 	 -42.080962 	 4.224433 	 -91.917953 
H 	 -43.526060 	 4.126785 	 -91.340538 
H 	 -36.310755 	 -6.620639 	 -84.866517 
H 	 -36.930441 	 -5.367587 	 -85.103034 
H 	 -35.029212 	 -1.551110 	 -88.804539 
H 	 -33.785210 	 -0.727194 	 -88.270323 
H 	 -36.666266 	 -4.611455 	 -89.488493 
H 	 -37.722902 	 -5.642144 	 -89.235902 
H 	 -38.492461 	 0.130121 	 -84.012791 
H 	 -38.856031 	 1.255021 	 -85.091441 
H 	 -34.365903 	 -7.358314 	 403.633832 
H 	 -35.638811 	 6.737806 	 404.234114 
H 	 -46.272973 	 2.993894 	 -87.017050 
H 	 -44.781010 	 2.635055 	 -86.691247 
H 	 -36.321606 	 5.706310 	 -87.014431 
H 	 -36.142870 	 6.757694 	 -88.213657 
H 	 -36.812909 	 3.288109 	 -85.793361 
H 	 -36.221794 	 4.476393 	 -84.953503 
H 	 -37.702425 	 -1.730073 	 -85.519271 
H 	 -38.207449 	 -2.428145 	 -84.208592 
H 	 -40.803747 	 -5.749190 	 -92.920300 
H 	 -40.171048 	 -7.037789 	 -93.394920 
H 	 -36.837249 	 -3.023434 	 -94.502271 
H 	 -37.727078 	 -3.731053 	 -93.375820 
H 	 452.054175 	 6.790490 	 -87.232641 
H 	 -34.316586 	 7.245361 	 -86.745410 
H 	 -41.339180 	 -4.862936 	 -85.855069 
H 	 -40.940724 	 -4.876532 	 -87.388408 
H 	 -42.251625 	 6.362627 	 -86.514514 
H 	 -42.077257 	 5.112519 	 -85.615398 
H 	 -41.184801 	 -2.035858 	 -93.231534 
H 	 -39.739104 	 -2.032121 	 -92.462118 
H 	 -39.326723 	 6.174479 	 -92.475870 
H 	 -39.964951 	 5.336728 	 -93.513064 
H 	 -44.686232 	 -2.077741 	 -93.327567 
H 	 -45.851865 	 -1.141369 	 -93.246927 
H 	 -45.898203 	 6.582043 	 -86.481271 
H 	 -44.912176 	 5.516939 	 -86.980916 
H 	 -41.316576 	 1.371177 	 -88.941254 
H 	 -40.793693 	 2.882782 	 -88.610253 
H 	 -42.979760 	 6.909791 	 -90.950347 
H 	 -42.300607 	 -6.709701 	 -90.623078 
H 	 -33.369991 	 -5.398486 	 -82.792959 
H 	 453.130151 	 -5.582367 	 403.100960 
H 	 -42.620763 	 -0.177465 	 -83.189039 
H 	 -43.944172 	 -0.536938 	 402.657814 
H 	 -36.791494 	 3.102039 	 404.300834 
H 	 -37.030899 	 3.440272 	 -94.209055 
H 	 -42.154806 	 0.495757 	 -94.486630 
H 	 -43.157994 	 0.745604 	 -93.311016 
H 	 -41.943879 	 3.255498 	 -94.492886 
H 	 -43.271133 	 2.894362 	 404.855031 
H 	 -35.591407 	 -1.498659 	 -91.345823 
H 	 -36.519119 	 -0.420830 	 -91.967068 
H 	 -34.874981 	 0.855796 	 -87.588913 
H 	 -35.165567 	 1.545034 	 -86.240270 
H 	 -45.817511 	 -5.493574 	 -92.292759 
H 	 -46.439069 	 -6.751441 	 -91.403751 
H 	 -39.473814 	 3.017492 	 -92.553046 
H 	 -39.747429 	 2.258851 	 -93.956827 
H 	 -41.295373 	 -2.942300 	 -88.567141 
H 	 -40.050918 	 -3.607852 	 -89.219964 
H 	 452.680729 	 -1.663214 	 -84.163917 
H 	 -33.438264 	 -1.014003 	 -83.189838 
H 	 -42.808886 	 -2.669871 	 -94.307425 
H 	 -42.853533 	 -3.516380 	 -93.061493 
H 	 -42.170823 	 4.931108 	 -82.713750 
H 	 -41.583690 	 4.959915 	 403.758440 
H 	 -45.644996 	 0.140186 	 403.852740 
H 	 -44.287414 	 0.571220 	 404.373142 
H 	 452.250886 	 -2.324265 	 -91.140387 
H 	 -33.662149 	 -3.475406 	 -91.880020 
H 	 -37.372189 	 -7.402496 	 404.683341 
H 	 -37.525096 	 5.903339 	 404.736511 
H 	 -34.481539 	 -3.640101 	 -88.577871 
H 	 -34.693820 	 -3.440936 	 -90.130625 
H 	 -33.947650 	 -6.609953 	 -89.942639 
H 	 -34.050112 	 6.850976 	 -89.379393 
H 	 452.335256 	 -2.971422 	 -86.823956 
H 	 -33.627190 	 -3.758190 	 -85.835922 
H 	 -38.528581 	 1.987346 	 -90.192648 
H 	 -39.834035 	 1.348618 	 -90.796437 
H 	 -35.755565 	 -5.650541 	 -91.350342 
H 	 -34.635180 	 -5.853998 	 -92.350398 
H 	 -35.316931 	 1.334505 	 404.177498 
H 	 -34.595998 	 1.610879 	 -94.396915 
H 	 -41.938185 	 2.713902 	 -83.799585 
H 	 -43.310970 	 3.454005 	 -83.596679 
H 	 -45.997636 	 -4.807938 	 -88.862233 
H 	 -46.316931 	 -4.830638 	 -90.356584 
H 	 -34.355933 	 2.307840 	 -92.005974 
H 	 -33.561424 	 3.276008 	 -92.871505 
H 	 -37.183069 	 -7.564455 	 -92.549820 
H 	 -37.902845 	 -7.104748 	 -91.120563 
H 	 -34.133883 	 -6.147367 	 -94.690386 
H 	 -35.238625 	 -5.233946 	 404.684377 
H 	 -37.563819 	 -2.460513 	 -91.455085 
H 	 -38.172863 	 -3.842553 	 -91.155824 
H 	 -42.502483 	 -3.775855 	 -84.025715 
H 	 -41.745841 	 -2.592899 	 -84.726964 
H 	 -40.816329 	 -5.492563 	 403.538077 
H 	 -40.369110 	 -5.055166 	 404.952077 
H 	 -41.353920 	 1.602551 	 403.490540 
H 	 -40.272050 	 1.243583 	 -82.765269 
H 	 -41.821639 	 6.467342 	 -93.511557 
H 	 -42.030362 	 6.578708 	 405.001689 
H 	 -40.190735 	 -0.077481 	 -94.094848 
H 	 -39.594324 	 0.285190 	 404.553104 
H 	 -42.827738 	 -4.361544 	 -91.170856 
H 	 -41.732447 	 -4.403253 	 -90.118103 
H 	 -37.759146 	 -0.873341 	 -89.404409 
H 	 -41.453447 	 -1.023236 	 -86.699342 
H 	 -44.678693 	 6.274990 	 -94.841707 
H 	 -45.429936 	 4.995358 	 -94.482515 
H 	 -33.690060 	 6.893680 	 -92.962929 
H 	 -34.744271 	 6.286970 	 -93.808856 
H 	 -35.488359 	 -1.719388 	 403.165216 
H 	 -36.297657 	 -1.398481 	 -83.132586 
H 	 -39.784409 	 4.964109 	 -88.075956 
H 	 -39.943648 	 5.265520 	 -89.601683 
H 	 -40.567751 	 -0.345834 	 -85.560250 
O 	 -46.302642 	 4.855227 	 -89.583895 
O 	 -34.522869 	 1.153831 	 -84.774632 
O 	 -44.688699 	 4.044127 	 -82.650184 
O 	 -33.344715 	 5.013491 	 -91.467193 
O 	 -45.339910 	 3.108652 	 -94.660737 
O 	 452.660595 	 2.511829 	 403.377382 
O 	 -42.974065 	 0.974103 	 -91.181869 
O 	 -45.382137 	 -3.683324 	 403.300100 
O 	 -43.115183 	 2.229531 	 -86.446770 
O 	 -44.038186 	 -6.224770 	 404.320948 
O 	 -35.796572 	 5.787832 	 -90.138263 
O 	 -42.683056 	 -2.918847 	 404.002410 
O 	 -37.111618 	 -5.718065 	 404.084582 
O 	 452.721712 	 -3.323714 	 -94.518490 
O 	 -39.263795 	 5.049832 	 -85.900285 
O 	 452.649486 	 5.193687 	 403.490129 
O 	 -36.531161 	 2.183931 	 402.677243 
O 	 -44.836796 	 -0.693134 	 -85.598498 
O 	 -42.011639 	 -1.476202 	 -88.427796 
O 	 -38.778140 	 -2.384198 	 -87.147366 
O 	 -41.373805 	 7.123753 	 -88.071671 
O 	 -37.515358 	 -5.078675 	 -87.142514 
O 	 452.945681 	 1.962352 	 -89.939964 
O 	 -44.690132 	 6.119420 	 -91.608834 
O 	 -37.606901 	 0.773769 	 -92.966492 
O 	 -38.542248 	 5.722769 	 402.930281 
O 	 -41.305259 	 -6.687235 	 -82.794741 
O 	 -38.673313 	 -7.474596 	 -88.755918 
O 	 -46.308282 	 -6.093680 	 -85.074164 
O 	 452.779773 	 -1.002171 	 -87.205361 
O 	 -35.501883 	 4.533032 	 -83.279779 
O 	 453.063556 	 -0.518955 	 404.551782 
O 	 -33.229018 	 3.798944 	 -87.410906 
O 	 -45.998600 	 -3.207257 	 -84.525850 
O 	 -45.922910 	 1.075338 	 -92.474014 
O 	 -34.984786 	 1.677912 	 -90.373998 
O 	 -44.894371 	 0.423396 	 -88.726281 
O 	 -38.405822 	 1.730595 	 -86.537497 
O 	 -38.547727 	 -1.265092 	 403.893649 
O 	 -34.533290 	 -3.913244 	 -83.738482 
O 	 -39.704405 	 -6.933979 	 -85.047386 
O 	 -35.382463 	 -1.697937 	 -94.609970 
O 	 -44.033563 	 -5.323333 	 -93.103156 
O 	 452.174593 	 4.756532 	 -84.569322 
O 	 -38.974015 	 -3.496427 	 -83.013249 
O 	 -37.289902 	 3.223464 	 -89.072527 
O 	 -44.569798 	 6.774093 	 -84.195156 
O 	 -43.578758 	 -5.366778 	 -83.854256 
O 	 -40.634054 	 -0.199422 	 -90.078524 
O 	 -43.875651 	 -2.842870 	 -90.288956 
O 	 -42.820375 	 3.600384 	 -91.795159 
O 	 -36.880418 	 -6.022100 	 -84.339036 
O 	 -34.669629 	 -0.667588 	 -88.724017 
O 	 -37.379188 	 -5.117345 	 -90.010345 
O 	 -38.817780 	 1.079025 	 -84.043773 
O 	 -34.958128 	 6.802993 	 403.500439 
O 	 -45.713319 	 2.467964 	 -86.409154 
O 	 -36.368673 	 6.674792 	 -87.247182 
O 	 -36.590249 	 4.235565 	 -85.843452 
O 	 -37.756329 	 -1.595242 	 -84.569355 
O 	 -40.034309 	 -6.067400 	 -93.485378 
O 	 -37.485187 	 -3.688007 	 -94.332315 
O 	 -33.386137 	 7.100786 	 -86.381615 
O 	 -41.147049 	 -5.433595 	 -86.615352 
O 	 -42.746610 	 5.689611 	 -86.019958 
O 	 -40.365713 	 -1.472635 	 -93.013466 
O 	 -40.196293 	 5.780952 	 -92.693073 
O 	 -45.576349 	 -2.034876 	 -92.927429 
O 	 -45.555516 	 6.173637 	 -87.319645 
O 	 -41.157395 	 2.033734 	 -88.206454 
O 	 -42.117459 	 7.227814 	 -90.617723 
O 	 452.492524 	 -6.002460 	 -82.662225 
O 	 -43.308296 	 -0.901889 	 -83.131009 
O 	 -36.680318 	 3.864286 	 404.938373 
O 	 -43.065278 	 0.838403 	 -94.289967 
O 	 -42.546965 	 3.546095 	 404.790705 
O 	 -36.446684 	 -1.112944 	 -91.239400 
O 	 -35.402175 	 1.608658 	 -87.244681 
O 	 -46.594965 	 -5.855252 	 -91.824393 
O 	 -39.546631 	 3.143630 	 -93.535152 
O 	 -40.919175 	 -3.824059 	 -88.820225 
O 	 452.253605 	 -0.795455 	 -83.948849 
O 	 -42.848906 	 -2.581541 	 -93.312410 
O 	 -41.798116 	 5.602946 	 403.037027 
O 	 -44.792276 	 0.575064 	 403.544226 
O 	 -33.678893 	 -2.516388 	 -91.635547 
O 	 -37.099761 	 6.693354 	 -94.866977 
O 	 -35.164095 	 -3.485913 	 -89.260429 
O 	 -33.553455 	 -7.212380 	 -89.241694 
O 	 -33.469249 	 -3.639738 	 -86.772881 
O 	 -39.165325 	 2.055705 	 -90.968005 
O 	 -34.772944 	 -5.483176 	 -91.470460 
O 	 -34.591729 	 1.056181 	 404.765833 
O 	 -42.461207 	 3.561486 	 -83.966516 
O 	 -46.126364 	 -4.180732 	 -89.581550 
O 	 -33.976114 	 2.388905 	 -92.930656 
O 	 -37.561915 	 7.066069 	 -91.694945 
O 	 -34.319006 	 -5.250365 	 405.047049 
O 	 -38.257209 	 -3.109901 	 -91.784510 
O 	 -41.638952 	 -3.476786 	 -84.444401 
O 	 -40.599186 	 -4.686732 	 404.085412 
O 	 -41.232338 	 1.362106 	 402.547170 
O 	 -42.475948 	 6.713686 	 -94.161634 
O 	 -40.166778 	 0.695510 	 -94.760883 
O 	 -42.140448 	 -4.943513 	 -90.888368 
O 	 -38.282337 	 -0.344503 	 -88.754047 
O 	 -45.574696 	 5.971566 	 -94.539849 
O 	 -34.321004 	 7.166578 	 -93.646756 
O 	 -35.395958 	 -1.471766 	 -82.862824 
O 	 -39.770809 	 4.554572 	 -88.932276 
O 	 -40.916147 	 -1.210045 	 -85.885719 
K 	 -46.124699 	 1.578200 	 -84.033489 
