333
conformation = 36
H 	 -2.644117 	 6.758549 	 -4.489325 
H 	 -2.772734 	 -6.662047 	 -3.744644 
H 	 -6.208508 	 3.783111 	 1.061953 
H 	 -5.075393 	 3.326208 	 0.231244 
H 	 -0.830970 	 6.800432 	 3.065294 
H 	 -1.178394 	 -7.090463 	 1.962760 
H 	 -5.357446 	 -6.929413 	 -5.887080 
H 	 -3.821541 	 -7.116621 	 -6.059983 
H 	 -1.725410 	 5.482205 	 6.073686 
H 	 -2.281297 	 5.526260 	 4.596730 
H 	 -4.495818 	 4.919245 	 3.639379 
H 	 -3.916571 	 6.307081 	 3.376632 
H 	 1.378364 	 3.180576 	 -5.592655 
H 	 0.864481 	 4.580665 	 -6.163430 
H 	 -2.267771 	 -0.923566 	 3.959653 
H 	 -0.793386 	 -0.548222 	 3.457056 
H 	 1.191719 	 5.219188 	 -2.161672 
H 	 0.751678 	 5.787163 	 -0.848423 
H 	 -0.766681 	 -2.594396 	 3.539763 
H 	 0.494098 	 -3.457568 	 3.833560 
H 	 -7.661350 	 -7.176817 	 -4.820258 
H 	 7.160629 	 -5.900778 	 -5.660116 
H 	 1.849175 	 -0.670454 	 3.860465 
H 	 0.990874 	 0.514070 	 3.130734 
H 	 6.343975 	 -2.738724 	 3.012918 
H 	 6.438706 	 -2.093593 	 4.523766 
H 	 -4.196101 	 -0.980992 	 5.674531 
H 	 -2.964088 	 0.011454 	 5.963409 
H 	 5.244433 	 7.673320 	 -1.073848 
H 	 4.289177 	 -6.057703 	 -0.580684 
H 	 -4.507985 	 -6.230191 	 3.474082 
H 	 -2.975031 	 -6.361063 	 3.868872 
H 	 -7.443278 	 5.868985 	 2.332849 
H 	 6.396073 	 4.601761 	 2.182274 
H 	 -0.352146 	 2.396197 	 -0.068090 
H 	 -1.316203 	 1.234901 	 -0.623106 
H 	 2.181517 	 1.752664 	 -4.152665 
H 	 0.797183 	 0.957241 	 -3.572119 
H 	 4.182450 	 0.705969 	 -1.796144 
H 	 5.273196 	 1.091384 	 -2.898013 
H 	 1.851736 	 -5.086181 	 -3.831070 
H 	 2.124662 	 -4.158054 	 -2.558687 
H 	 5.524293 	 -1.461782 	 -2.121694 
H 	 5.572731 	 -3.051976 	 -2.255347 
H 	 -2.905216 	 4.149686 	 -4.221622 
H 	 -4.305396 	 4.727292 	 -4.917587 
H 	 -1.493890 	 -6.296920 	 -7.327203 
H 	 -1.490567 	 -6.410248 	 -5.781638 
H 	 5.721338 	 3.533165 	 5.891490 
H 	 5.464869 	 3.966096 	 -7.517558 
H 	 4.976155 	 7.616391 	 3.172753 
H 	 4.191967 	 -6.353943 	 2.384242 
H 	 3.014969 	 -3.792781 	 1.435855 
H 	 2.278381 	 -4.770834 	 2.313601 
H 	 5.372587 	 -5.088439 	 -2.932748 
H 	 4.033043 	 -4.678114 	 -3.479545 
H 	 -3.402927 	 -3.527754 	 -0.697026 
H 	 -3.163137 	 -3.454673 	 0.830247 
H 	 -2.858705 	 1.795524 	 -2.979937 
H 	 -3.463118 	 2.551186 	 -1.739001 
H 	 -6.639376 	 -6.743671 	 2.384452 
H 	 -5.757033 	 7.395843 	 1.274010 
H 	 -3.476950 	 1.354800 	 4.576958 
H 	 -4.020321 	 2.838146 	 4.690291 
H 	 -4.694796 	 6.541252 	 -1.468259 
H 	 -5.225115 	 5.709452 	 -2.577990 
H 	 -2.833335 	 -1.219603 	 -0.024187 
H 	 -2.158352 	 -0.779555 	 1.262350 
H 	 -1.312451 	 3.721664 	 -7.156306 
H 	 -2.704832 	 4.143154 	 -6.749187 
H 	 -6.351264 	 3.663054 	 -4.985555 
H 	 -7.021710 	 4.980808 	 -5.190250 
H 	 -0.632996 	 3.016413 	 -3.005990 
H 	 -0.518541 	 3.641712 	 -4.389444 
H 	 4.531120 	 4.839744 	 -2.059590 
H 	 5.744020 	 3.833972 	 -2.128677 
H 	 5.008271 	 1.012236 	 4.540941 
H 	 4.794624 	 0.994763 	 3.046441 
H 	 -5.989730 	 -0.323934 	 1.568359 
H 	 -6.812027 	 -1.544851 	 1.143156 
H 	 3.844041 	 -3.401722 	 -0.522772 
H 	 5.045494 	 -4.134011 	 0.275603 
H 	 -6.355343 	 1.928636 	 5.359352 
H 	 -5.779710 	 0.509951 	 5.594572 
H 	 -0.291568 	 -2.728017 	 5.861720 
H 	 -0.003641 	 -3.490049 	 7.211863 
H 	 -3.625427 	 -6.844847 	 1.290210 
H 	 -4.207889 	 -6.445101 	 -0.095452 
H 	 4.416702 	 -0.948749 	 2.786952 
H 	 3.661783 	 -0.621350 	 1.486188 
H 	 6.563214 	 5.775375 	 -3.235960 
H 	 5.573866 	 6.494321 	 -4.032093 
H 	 -1.616467 	 -4.688278 	 0.532853 
H 	 -0.311258 	 -5.520647 	 0.187482 
H 	 0.935652 	 -3.156025 	 1.218921 
H 	 -0.628674 	 -2.966238 	 0.847352 
H 	 4.603674 	 2.464926 	 -4.502751 
H 	 3.046959 	 2.208017 	 -5.961688 
H 	 -0.916121 	 -0.649154 	 -5.169750 
H 	 -0.424223 	 0.577849 	 -5.934616 
H 	 1.539770 	 7.113231 	 -6.968076 
H 	 0.009893 	 7.075021 	 -6.935046 
H 	 -7.644679 	 -4.101726 	 0.384790 
H 	 6.672661 	 -2.859149 	 -0.313388 
H 	 -6.443017 	 1.279990 	 -3.979501 
H 	 -5.213861 	 1.814162 	 -3.060784 
H 	 7.044781 	 -1.869411 	 -4.443217 
H 	 5.943216 	 -2.873838 	 -4.369568 
H 	 5.236808 	 2.896925 	 0.720605 
H 	 5.189415 	 4.356694 	 0.181528 
H 	 -5.694129 	 -4.515534 	 3.347289 
H 	 -6.882288 	 -5.318577 	 3.914838 
H 	 -2.499670 	 5.975148 	 -1.941103 
H 	 -1.216457 	 5.189607 	 -1.736834 
H 	 7.172866 	 -6.397751 	 -2.079306 
H 	 -7.238385 	 -5.297218 	 -3.068335 
H 	 6.688942 	 6.251012 	 -1.042608 
H 	 -7.530054 	 7.128656 	 0.028550 
H 	 5.820091 	 1.012369 	 -0.490600 
H 	 5.549986 	 0.600606 	 0.988961 
H 	 3.403427 	 -2.769711 	 7.273209 
H 	 3.323737 	 -4.082334 	 6.471726 
H 	 6.904099 	 -0.191187 	 5.462365 
H 	 5.810303 	 -0.900117 	 6.447319 
H 	 -4.569072 	 -5.181364 	 -2.271350 
H 	 -5.578795 	 -5.155257 	 -1.200290 
H 	 2.030648 	 -1.985876 	 -0.972566 
H 	 2.530460 	 -1.997773 	 -2.405825 
H 	 1.522349 	 -6.464028 	 -1.646418 
H 	 1.518790 	 -6.990852 	 -0.159812 
H 	 2.463680 	 0.823000 	 6.862882 
H 	 4.032667 	 0.575007 	 6.943402 
H 	 4.236927 	 -5.995359 	 -7.281197 
H 	 3.780847 	 7.704824 	 6.833764 
H 	 -0.996351 	 0.867483 	 6.919779 
H 	 -2.050511 	 1.913800 	 6.831823 
H 	 -2.151477 	 -5.401201 	 -1.535788 
H 	 -1.150790 	 -6.528278 	 -1.879923 
H 	 2.523032 	 4.049385 	 -3.861227 
H 	 2.805744 	 5.612121 	 -3.759237 
H 	 0.779999 	 -5.319655 	 -5.976183 
H 	 1.488313 	 -3.934270 	 -5.970539 
H 	 -4.574825 	 -2.443811 	 2.211415 
H 	 -3.101670 	 -2.872065 	 2.739903 
H 	 1.259479 	 2.398419 	 1.955357 
H 	 -0.218413 	 2.428585 	 2.415032 
H 	 6.914163 	 5.866897 	 4.377586 
H 	 6.555901 	 6.468265 	 5.678608 
H 	 1.566091 	 3.642315 	 5.599006 
H 	 0.382751 	 3.840409 	 6.539210 
H 	 1.604731 	 6.047932 	 5.471822 
H 	 0.230598 	 5.856086 	 4.889510 
H 	 -6.712018 	 1.382141 	 -6.517320 
H 	 6.978685 	 2.153770 	 -7.137918 
H 	 -6.918927 	 3.695533 	 -2.652525 
H 	 -6.226995 	 4.125362 	 -1.257569 
H 	 -2.369306 	 -3.059491 	 -7.449408 
H 	 -2.955516 	 -3.732437 	 -6.082481 
H 	 3.989634 	 5.674742 	 7.269685 
H 	 4.015820 	 5.182960 	 5.751922 
H 	 2.317938 	 -0.080833 	 -3.694989 
H 	 3.711500 	 -0.730255 	 -3.662173 
H 	 -3.552120 	 1.090221 	 0.598374 
H 	 -4.563153 	 1.682093 	 1.648355 
H 	 0.796850 	 0.105293 	 5.441632 
H 	 0.417315 	 -0.697234 	 6.737837 
H 	 1.848505 	 7.600496 	 2.336180 
H 	 1.648033 	 -7.082443 	 3.757221 
H 	 -1.924291 	 3.147473 	 3.819496 
H 	 -0.565869 	 3.517691 	 4.239304 
H 	 -3.863463 	 0.670856 	 -6.667369 
H 	 -4.841091 	 -0.590523 	 -6.792440 
H 	 6.428982 	 -4.409637 	 4.733437 
H 	 6.147588 	 -5.994607 	 4.676631 
H 	 -5.803191 	 -0.883765 	 -3.344631 
H 	 -5.499445 	 -0.457303 	 -4.785859 
H 	 -5.389355 	 -3.680775 	 -4.949721 
H 	 -5.104719 	 -5.153370 	 -4.501048 
H 	 -4.344946 	 -0.000772 	 -1.866236 
H 	 -5.360086 	 -0.780957 	 -1.044469 
H 	 5.326272 	 5.116515 	 -5.567489 
H 	 4.148006 	 4.105834 	 -5.407310 
H 	 -7.069192 	 -2.635183 	 -6.276147 
H 	 -5.894037 	 -2.939355 	 -7.191923 
H 	 -6.397002 	 4.265035 	 4.118645 
H 	 -5.662382 	 4.499932 	 5.553023 
H 	 1.734696 	 5.552969 	 1.443853 
H 	 0.614266 	 6.589954 	 1.289630 
H 	 -2.611474 	 -2.171974 	 -3.965111 
H 	 -2.787288 	 -1.705639 	 -5.420050 
H 	 -5.684105 	 4.936332 	 -7.113864 
H 	 -5.248667 	 6.210577 	 7.155099 
H 	 6.453394 	 -4.878908 	 7.209708 
H 	 5.702010 	 -4.154663 	 -6.373366 
H 	 -5.397300 	 -3.155949 	 5.526245 
H 	 -6.395353 	 -2.379119 	 4.594838 
H 	 6.118780 	 0.337571 	 -6.612681 
H 	 5.726963 	 -1.044654 	 -6.086212 
H 	 1.050662 	 -1.125375 	 0.609474 
H 	 1.839409 	 0.219136 	 0.173111 
H 	 2.916008 	 -2.609518 	 3.361843 
H 	 3.373970 	 -2.350399 	 4.881866 
H 	 2.465535 	 4.358074 	 3.539486 
H 	 3.340266 	 4.157167 	 2.175922 
H 	 1.987709 	 -5.766578 	 6.424000 
H 	 1.627265 	 -5.504612 	 5.015586 
H 	 3.512698 	 2.692554 	 5.856744 
H 	 3.730722 	 2.903937 	 4.382264 
H 	 0.823666 	 -1.576131 	 -6.054731 
H 	 2.076243 	 -1.725327 	 -5.129836 
H 	 6.115805 	 2.778519 	 -4.630727 
H 	 2.081950 	 1.840029 	 -1.590505 
H 	 -1.060873 	 -5.635362 	 5.183363 
H 	 -1.559913 	 -7.086887 	 5.348361 
H 	 -5.170096 	 -5.728581 	 6.909009 
H 	 -6.301374 	 -5.455734 	 5.960790 
H 	 -7.068684 	 1.292670 	 3.003569 
H 	 -7.453077 	 1.292330 	 1.471046 
H 	 3.896039 	 -6.903982 	 -3.141601 
H 	 3.821152 	 -6.753854 	 -4.667306 
H 	 2.879747 	 2.476400 	 -0.401629 
O 	 -2.642296 	 -7.156035 	 -4.582283 
O 	 -5.718744 	 4.044258 	 0.245491 
O 	 -0.885196 	 6.902518 	 2.112583 
O 	 -4.657066 	 -7.148100 	 -6.576774 
O 	 -1.746054 	 6.027220 	 5.266143 
O 	 -3.669127 	 5.364499 	 3.245995 
O 	 0.645167 	 3.628794 	 -6.162342 
O 	 -1.659556 	 -0.924744 	 3.207061 
O 	 0.526309 	 5.032533 	 -1.434945 
O 	 -0.433629 	 -3.306002 	 4.128568 
O 	 -7.098004 	 -6.465275 	 -5.167872 
O 	 0.995642 	 -0.139173 	 3.851546 
O 	 6.643832 	 -2.912602 	 3.928403 
O 	 -3.600298 	 -0.343206 	 5.295812 
O 	 4.322249 	 -6.934427 	 -1.062469 
O 	 -3.724779 	 -6.831048 	 3.427735 
O 	 7.142956 	 4.968341 	 2.616844 
O 	 -1.122833 	 2.203233 	 -0.670013 
O 	 1.701989 	 1.288366 	 -3.288350 
O 	 5.081896 	 0.450577 	 -2.086846 
O 	 2.154804 	 -5.067499 	 -2.911788 
O 	 6.152974 	 -2.245499 	 -2.022950 
O 	 -3.313069 	 4.758353 	 -4.889668 
O 	 -0.972762 	 -6.011003 	 -6.522789 
O 	 6.154458 	 3.568957 	 6.753249 
O 	 5.052802 	 -6.403795 	 2.825011 
O 	 2.367532 	 -3.798140 	 2.168787 
O 	 4.946896 	 -4.825608 	 -3.770186 
O 	 -2.664863 	 -3.433448 	 -0.082961 
O 	 -3.635588 	 1.867118 	 -2.427086 
O 	 -6.605959 	 7.371206 	 1.747238 
O 	 -3.227056 	 2.308787 	 4.474013 
O 	 -4.655100 	 6.506677 	 -2.436634 
O 	 -2.364231 	 -0.477655 	 0.396027 
O 	 -2.136492 	 3.987092 	 -7.554236 
O 	 -6.199800 	 4.532784 	 -5.347812 
O 	 -1.209371 	 3.297156 	 -3.775025 
O 	 5.424614 	 4.644521 	 -1.676553 
O 	 5.067774 	 1.600122 	 3.801863 
O 	 -5.864137 	 -1.264436 	 1.256322 
O 	 4.129625 	 -4.205162 	 0.004442 
O 	 -6.551808 	 0.949579 	 5.308275 
O 	 -0.352025 	 -2.688800 	 6.812608 
O 	 -4.101487 	 7.673899 	 0.502621 
O 	 4.595200 	 -0.621327 	 1.859335 
O 	 6.418721 	 5.960341 	 -4.162932 
O 	 -0.902693 	 -5.239186 	 0.882855 
O 	 0.192217 	 -2.526549 	 1.168216 
O 	 2.977598 	 2.593748 	 -5.062172 
O 	 -0.167680 	 -0.027882 	 -5.235077 
O 	 0.787928 	 6.496233 	 -6.867427 
O 	 6.868918 	 -3.177505 	 0.601235 
O 	 -5.920386 	 2.040680 	 -3.741189 
O 	 6.400508 	 -2.288964 	 -5.014478 
O 	 4.937074 	 3.807169 	 0.996881 
O 	 -6.090546 	 -5.399945 	 3.368014 
O 	 -2.094826 	 5.390741 	 -1.314962 
O 	 7.139707 	 -5.439916 	 -2.264563 
O 	 7.107295 	 7.105355 	 -0.900858 
O 	 6.025811 	 1.271612 	 0.439633 
O 	 3.673098 	 -3.179551 	 6.452854 
O 	 6.177793 	 -0.880771 	 5.548272 
O 	 -4.620672 	 -5.025799 	 -1.295851 
O 	 2.516916 	 -2.530682 	 -1.575296 
O 	 0.981747 	 -6.493723 	 -0.845015 
O 	 3.364856 	 1.271396 	 6.899534 
O 	 3.445552 	 -6.334690 	 7.142647 
O 	 -1.970742 	 0.935508 	 6.989375 
O 	 -1.839879 	 -5.951300 	 -2.279306 
O 	 2.627826 	 4.811179 	 -3.251079 
O 	 1.625983 	 -4.864560 	 -5.675931 
O 	 -3.891260 	 -3.193421 	 2.278370 
O 	 0.454523 	 1.868101 	 1.925258 
O 	 6.893138 	 6.735445 	 4.828073 
O 	 0.610035 	 3.706194 	 5.585457 
O 	 1.097258 	 6.320549 	 4.685989 
O 	 -7.671063 	 1.609604 	 -6.353662 
O 	 -6.583047 	 4.499433 	 -2.152445 
O 	 -3.036688 	 -3.048854 	 -6.771666 
O 	 4.070072 	 6.015187 	 6.314747 
O 	 2.788741 	 -0.956792 	 -3.896144 
O 	 -4.068790 	 1.897054 	 0.860499 
O 	 0.754914 	 0.205725 	 6.457320 
O 	 1.839338 	 -6.559026 	 2.941050 
O 	 -1.040958 	 3.409297 	 3.432894 
O 	 -4.825566 	 0.364223 	 -6.588828 
O 	 6.651384 	 -5.310297 	 5.109557 
O 	 -6.249862 	 -0.658932 	 -4.199245 
O 	 -4.886251 	 -4.217008 	 -4.278897 
O 	 -4.771737 	 -0.879661 	 -1.816045 
O 	 4.530495 	 4.795929 	 -5.977606 
O 	 -6.135957 	 -2.432831 	 -6.365364 
O 	 -5.715514 	 3.920779 	 4.734310 
O 	 1.382883 	 6.258663 	 0.852545 
O 	 -2.382065 	 -1.373203 	 -4.524096 
O 	 -5.256201 	 5.259531 	 6.932678 
O 	 6.001986 	 -4.995848 	 -6.796868 
O 	 -5.497818 	 -2.360146 	 4.957753 
O 	 5.469457 	 -0.408515 	 -6.791372 
O 	 1.948402 	 -0.707098 	 0.542523 
O 	 3.179569 	 -1.898861 	 4.033203 
O 	 2.398528 	 4.203420 	 2.580115 
O 	 1.246351 	 -5.462987 	 5.909772 
O 	 3.456473 	 3.427640 	 5.163207 
O 	 1.612842 	 -2.193875 	 -5.906002 
O 	 5.463905 	 2.499271 	 -3.970629 
O 	 -1.865957 	 -6.152625 	 5.303438 
O 	 -5.519795 	 -5.034991 	 6.314006 
O 	 -6.658322 	 1.333319 	 2.078299 
O 	 3.993371 	 7.473750 	 -3.999955 
O 	 2.635120 	 1.630143 	 -0.770979 
K 	 -2.482419 	 4.345846 	 0.930674 
