333
conformation = 72
H 	 -2.630997 	 6.644135 	 -4.536252 
H 	 -2.320176 	 -6.923044 	 -3.604300 
H 	 -6.116015 	 3.795806 	 1.236896 
H 	 -5.098810 	 3.065514 	 0.436207 
H 	 -1.014923 	 6.621474 	 2.961965 
H 	 -0.885734 	 -7.142592 	 1.864940 
H 	 -5.557759 	 -7.251970 	 -6.133469 
H 	 -4.066985 	 7.475375 	 -5.777951 
H 	 -1.792692 	 5.324758 	 6.200051 
H 	 -2.356834 	 5.703486 	 4.765196 
H 	 -4.317067 	 4.846464 	 3.925473 
H 	 -3.776351 	 6.211903 	 3.482732 
H 	 1.637385 	 3.157609 	 -5.720646 
H 	 0.672270 	 4.387355 	 -6.073289 
H 	 -2.100818 	 -0.614101 	 3.966378 
H 	 -0.630441 	 -0.805034 	 3.514813 
H 	 1.371987 	 4.698240 	 -1.939343 
H 	 1.157886 	 5.019687 	 -0.505506 
H 	 -0.828049 	 -2.636926 	 3.771617 
H 	 0.475283 	 -3.454897 	 3.660470 
H 	 -7.405882 	 7.297552 	 -4.810419 
H 	 7.262955 	 -6.329589 	 -5.666604 
H 	 1.903265 	 -0.832561 	 3.719994 
H 	 1.089205 	 0.390368 	 3.218572 
H 	 6.489922 	 -2.981066 	 3.081161 
H 	 6.357985 	 -2.322742 	 4.574179 
H 	 -3.866162 	 -1.201740 	 5.324337 
H 	 -2.985774 	 -0.151950 	 6.172113 
H 	 5.242689 	 -7.255900 	 -0.840315 
H 	 4.276152 	 -6.010893 	 -0.940872 
H 	 -4.489680 	 -6.529184 	 3.931467 
H 	 -2.930790 	 -6.638925 	 4.202184 
H 	 -7.049654 	 5.493663 	 2.416008 
H 	 6.486809 	 4.589306 	 2.335306 
H 	 -0.107859 	 2.450521 	 -0.166072 
H 	 -1.106058 	 1.184712 	 -0.305809 
H 	 2.354986 	 1.685184 	 -3.754469 
H 	 0.867619 	 1.123448 	 -3.510746 
H 	 4.526015 	 0.763956 	 -1.595924 
H 	 5.723088 	 1.007519 	 -2.593673 
H 	 1.905391 	 -5.236964 	 -3.614259 
H 	 1.791284 	 -4.599304 	 -2.151199 
H 	 5.964521 	 -1.435659 	 -1.759547 
H 	 5.517376 	 -2.889288 	 -2.208350 
H 	 -2.651465 	 3.916100 	 -4.180759 
H 	 -4.090153 	 4.666886 	 -4.687702 
H 	 -1.350589 	 -5.743707 	 -6.989560 
H 	 -1.503401 	 -6.549638 	 -5.660168 
H 	 5.658006 	 2.922346 	 6.246880 
H 	 5.907420 	 3.800143 	 -7.356961 
H 	 5.102745 	 7.541466 	 3.502416 
H 	 4.128311 	 -6.435151 	 2.918866 
H 	 3.208335 	 -4.190378 	 1.589571 
H 	 2.287669 	 -4.787470 	 2.663309 
H 	 5.659404 	 -5.429522 	 -3.149859 
H 	 4.224471 	 -5.078200 	 -3.052244 
H 	 -3.386181 	 -4.019667 	 -0.460134 
H 	 -2.949520 	 -3.591711 	 0.985590 
H 	 -2.706587 	 1.643612 	 -3.012142 
H 	 -3.203625 	 2.260180 	 -1.650602 
H 	 -6.486634 	 -6.870545 	 2.429487 
H 	 -5.523704 	 7.227559 	 1.422513 
H 	 -3.486629 	 1.330376 	 4.955349 
H 	 -3.836684 	 2.838326 	 4.780961 
H 	 -4.555003 	 6.417388 	 -1.344209 
H 	 -5.386094 	 5.605576 	 -2.275804 
H 	 -2.674975 	 -1.433881 	 0.066643 
H 	 -2.031870 	 -0.872096 	 1.323558 
H 	 -1.020031 	 3.681799 	 -7.009914 
H 	 -2.370727 	 4.339231 	 -6.717954 
H 	 -6.071109 	 3.570797 	 -4.699157 
H 	 -6.689472 	 4.968396 	 -4.736479 
H 	 -0.490637 	 3.082772 	 -2.897909 
H 	 -0.463429 	 3.027193 	 -4.412325 
H 	 4.696902 	 4.996205 	 -1.817963 
H 	 5.659719 	 3.817674 	 -2.283876 
H 	 5.668595 	 0.788145 	 4.321692 
H 	 4.884231 	 1.193679 	 3.058335 
H 	 -6.281346 	 -0.984949 	 2.020913 
H 	 -6.422184 	 -2.300542 	 1.315065 
H 	 3.929863 	 -3.887622 	 -0.488550 
H 	 5.201987 	 -3.930462 	 0.496243 
H 	 -6.267776 	 1.683646 	 5.241301 
H 	 -5.463796 	 0.330925 	 5.451014 
H 	 -0.399646 	 -3.421255 	 6.122617 
H 	 0.450702 	 -3.409793 	 -7.405640 
H 	 -3.562773 	 -7.121443 	 1.638080 
H 	 -3.680203 	 -6.424018 	 0.299239 
H 	 4.230218 	 -1.180835 	 2.718289 
H 	 3.740015 	 -0.794116 	 1.285768 
H 	 6.672462 	 5.267704 	 -3.342402 
H 	 5.796171 	 6.377004 	 -3.731974 
H 	 -1.255464 	 -5.097496 	 0.359728 
H 	 0.067441 	 -5.699247 	 0.863589 
H 	 0.853659 	 -3.342319 	 1.627738 
H 	 -0.460021 	 -2.837246 	 0.792067 
H 	 4.740124 	 2.348461 	 -4.331837 
H 	 3.214219 	 1.816495 	 -5.640699 
H 	 -0.838935 	 -0.082195 	 -4.682851 
H 	 -0.038532 	 0.522299 	 -5.804104 
H 	 1.759465 	 6.855543 	 -6.676499 
H 	 0.258180 	 7.188358 	 -6.743646 
H 	 -7.211796 	 -4.003607 	 0.819642 
H 	 7.021721 	 -3.221857 	 -0.323232 
H 	 -6.092952 	 0.948818 	 -3.764722 
H 	 -5.023887 	 2.087741 	 -3.459534 
H 	 7.208659 	 -2.043695 	 -4.258923 
H 	 6.327476 	 -3.234477 	 -4.395489 
H 	 5.668317 	 2.801484 	 1.087908 
H 	 5.089787 	 3.936275 	 0.290981 
H 	 -5.751959 	 -4.643721 	 3.071797 
H 	 -6.522942 	 -5.468922 	 4.141068 
H 	 -2.636602 	 5.674355 	 -1.941023 
H 	 -1.162425 	 5.460323 	 -1.534699 
H 	 -7.604875 	 -6.371499 	 -1.564676 
H 	 -7.253586 	 -5.833796 	 -2.926102 
H 	 -7.277119 	 6.182129 	 -1.131538 
H 	 -7.312121 	 7.080944 	 0.104859 
H 	 6.121344 	 0.847016 	 -0.320974 
H 	 5.748926 	 0.510979 	 1.137593 
H 	 3.395899 	 -2.680570 	 7.352424 
H 	 3.189842 	 -3.944386 	 6.517753 
H 	 7.202862 	 -0.536248 	 5.613212 
H 	 5.988159 	 -1.077826 	 6.563185 
H 	 -4.572462 	 -4.809922 	 -2.026181 
H 	 -5.527725 	 -5.119802 	 -0.913992 
H 	 2.439756 	 -1.959753 	 -0.701797 
H 	 2.652705 	 -1.994526 	 -2.216028 
H 	 1.589388 	 -6.255373 	 -1.284643 
H 	 1.630218 	 7.374309 	 -0.300127 
H 	 2.583694 	 0.761902 	 7.039945 
H 	 4.066475 	 0.448833 	 -7.341831 
H 	 4.212255 	 -6.072027 	 -7.047242 
H 	 4.082124 	 7.540606 	 7.009612 
H 	 -1.045066 	 0.797092 	 6.771960 
H 	 -1.992726 	 1.920824 	 6.937244 
H 	 -2.135553 	 -5.611949 	 -1.416401 
H 	 -0.785025 	 -6.353004 	 -1.688270 
H 	 3.182030 	 3.964032 	 -3.768731 
H 	 3.059694 	 5.520554 	 -3.606757 
H 	 0.876547 	 -5.301016 	 -5.864129 
H 	 1.699295 	 -4.083414 	 -5.488995 
H 	 -4.392543 	 -2.529448 	 2.080698 
H 	 -3.330152 	 -3.097878 	 3.147692 
H 	 1.527148 	 2.235691 	 2.154220 
H 	 0.096041 	 2.173506 	 2.669760 
H 	 6.864729 	 5.960442 	 4.332772 
H 	 6.316272 	 6.281426 	 5.647850 
H 	 1.611051 	 3.480790 	 5.427305 
H 	 0.916850 	 3.556996 	 6.723484 
H 	 1.636512 	 6.489406 	 5.653350 
H 	 0.270230 	 6.155359 	 5.140028 
H 	 -6.548750 	 1.203337 	 -6.464332 
H 	 7.183860 	 2.118089 	 -7.026070 
H 	 -6.208130 	 3.532244 	 -2.444254 
H 	 -6.409127 	 4.192286 	 -1.034443 
H 	 -2.096682 	 -3.157648 	 -6.896439 
H 	 -3.312182 	 -3.921315 	 -6.146599 
H 	 4.314025 	 5.246628 	 7.159631 
H 	 3.811210 	 5.406172 	 5.671066 
H 	 2.539777 	 -0.233800 	 -3.517493 
H 	 3.989627 	 -0.840304 	 -3.552866 
H 	 -3.282580 	 0.847596 	 0.770797 
H 	 -4.665645 	 1.312199 	 1.308995 
H 	 0.949534 	 0.176419 	 5.578701 
H 	 0.851172 	 -0.952865 	 6.573644 
H 	 2.081931 	 -6.977702 	 2.176793 
H 	 1.427775 	 7.426257 	 3.408111 
H 	 -1.422326 	 2.795684 	 4.171283 
H 	 -0.331527 	 3.760725 	 4.193240 
H 	 -3.838295 	 0.454907 	 -6.946733 
H 	 -4.944434 	 -0.604379 	 -6.693255 
H 	 6.650375 	 -4.478062 	 4.876083 
H 	 6.343182 	 -6.061943 	 4.985407 
H 	 -5.600012 	 -1.058611 	 -3.069489 
H 	 -5.353195 	 -0.852397 	 -4.592281 
H 	 -5.125126 	 -3.365816 	 -4.581152 
H 	 -4.978773 	 -4.879543 	 -4.891597 
H 	 -4.432604 	 -0.119430 	 -1.655886 
H 	 -5.213673 	 -1.154530 	 -0.796085 
H 	 5.195616 	 4.837896 	 -5.161685 
H 	 4.144394 	 3.811558 	 -5.692427 
H 	 -6.964505 	 -2.381690 	 -5.964358 
H 	 -6.037634 	 -3.289087 	 -6.674724 
H 	 -6.329255 	 3.960777 	 4.396481 
H 	 -5.455786 	 4.476126 	 5.687801 
H 	 2.043400 	 5.373672 	 1.563490 
H 	 0.767836 	 6.162789 	 1.208936 
H 	 -2.588446 	 -2.107412 	 -3.598637 
H 	 -2.460705 	 -2.179817 	 -5.143417 
H 	 -5.533171 	 4.620527 	 -7.101314 
H 	 -4.863618 	 5.950741 	 -7.298488 
H 	 5.950701 	 -5.307316 	 7.150942 
H 	 6.071999 	 -4.185184 	 -6.650289 
H 	 -5.211342 	 -3.379308 	 5.554246 
H 	 -6.171427 	 -2.453548 	 4.695230 
H 	 6.296724 	 0.043855 	 -6.415014 
H 	 5.698638 	 -1.349135 	 -5.983798 
H 	 1.278935 	 -1.240948 	 1.138882 
H 	 1.759558 	 0.059535 	 0.348221 
H 	 3.099639 	 -2.875524 	 3.687339 
H 	 3.581589 	 -2.249869 	 5.101650 
H 	 2.506091 	 4.643673 	 3.571043 
H 	 3.439741 	 3.916479 	 2.408453 
H 	 2.129627 	 -6.001696 	 6.578136 
H 	 1.628351 	 -5.564453 	 5.236362 
H 	 3.497085 	 2.510298 	 6.105315 
H 	 4.061394 	 2.653840 	 4.728587 
H 	 1.035793 	 -1.816608 	 -5.644364 
H 	 2.483285 	 -2.074334 	 -5.152119 
H 	 6.184827 	 2.086316 	 -4.745811 
H 	 2.260690 	 1.488171 	 -1.454823 
H 	 -0.819927 	 -5.847587 	 5.403393 
H 	 -1.455634 	 -7.246049 	 5.546581 
H 	 -5.096873 	 -6.117916 	 6.890575 
H 	 -6.311328 	 -5.443066 	 6.294175 
H 	 -7.257596 	 1.423671 	 2.876451 
H 	 -7.115624 	 1.285782 	 1.399975 
H 	 4.181057 	 7.568118 	 -2.914996 
H 	 4.303419 	 -6.715694 	 -4.335378 
H 	 2.542435 	 2.515690 	 -0.347896 
O 	 -2.519446 	 -7.281047 	 -4.486532 
O 	 -5.514388 	 3.946156 	 0.506438 
O 	 -0.717943 	 6.821979 	 2.034197 
O 	 -4.653482 	 -7.302644 	 -6.583333 
O 	 -1.657698 	 5.929189 	 5.436918 
O 	 -3.557370 	 5.259237 	 3.371893 
O 	 0.674214 	 3.407562 	 -5.970441 
O 	 -1.553551 	 -1.135826 	 3.354879 
O 	 0.609866 	 4.875957 	 -1.332422 
O 	 -0.335865 	 -3.374805 	 4.189904 
O 	 -7.007849 	 -6.720828 	 -5.001151 
O 	 1.113699 	 -0.275317 	 3.919159 
O 	 6.859575 	 -3.005347 	 4.011202 
O 	 -3.443619 	 -0.330369 	 5.332501 
O 	 4.337841 	 -6.975117 	 -1.111037 
O 	 -3.633382 	 -6.866878 	 3.534615 
O 	 -7.598246 	 4.770265 	 2.803059 
O 	 -0.928762 	 2.112480 	 -0.597232 
O 	 1.784157 	 1.146773 	 -3.054223 
O 	 5.340228 	 0.319554 	 -1.914412 
O 	 2.200579 	 -5.271639 	 -2.692171 
O 	 6.269213 	 -2.386360 	 -1.729877 
O 	 -3.121037 	 4.651573 	 -4.746760 
O 	 -0.826629 	 -6.224087 	 -6.312572 
O 	 6.375489 	 3.400635 	 6.729028 
O 	 5.099649 	 -6.593587 	 2.929070 
O 	 2.527984 	 -3.933219 	 2.268482 
O 	 4.983573 	 -4.909992 	 -3.636372 
O 	 -2.613575 	 -3.644344 	 0.015575 
O 	 -3.499623 	 1.767682 	 -2.443747 
O 	 -6.402226 	 7.213679 	 1.813752 
O 	 -3.163873 	 2.204710 	 4.629386 
O 	 -4.682837 	 6.302839 	 -2.305439 
O 	 -2.328161 	 -0.599191 	 0.455651 
O 	 -1.870447 	 3.916258 	 -7.428896 
O 	 -6.059960 	 4.413846 	 -5.205857 
O 	 -1.074224 	 3.162993 	 -3.651244 
O 	 5.601683 	 4.613087 	 -1.689456 
O 	 5.121658 	 1.466977 	 3.955881 
O 	 -5.811050 	 -1.524902 	 1.363898 
O 	 4.408819 	 -4.410716 	 0.239372 
O 	 -6.371020 	 0.704530 	 5.441255 
O 	 -0.258989 	 -2.985113 	 6.951842 
O 	 -3.937397 	 -7.267668 	 0.724606 
O 	 4.530975 	 -0.690062 	 1.918207 
O 	 6.540505 	 5.857823 	 -4.124222 
O 	 -0.773748 	 -5.383633 	 1.135108 
O 	 0.333280 	 -2.598703 	 1.321477 
O 	 3.057643 	 2.475057 	 -4.920250 
O 	 0.016986 	 -0.145497 	 -5.073481 
O 	 0.882034 	 6.445343 	 -6.816862 
O 	 7.017957 	 -3.326224 	 0.672625 
O 	 -5.981432 	 1.913336 	 -3.643663 
O 	 6.570895 	 -2.428584 	 -4.857729 
O 	 5.122901 	 3.630181 	 1.216337 
O 	 -5.897428 	 -5.565604 	 3.442381 
O 	 -2.065932 	 5.371967 	 -1.167207 
O 	 7.202887 	 -5.554902 	 -2.111791 
O 	 7.181212 	 6.971963 	 -0.761785 
O 	 6.223660 	 1.174800 	 0.599683 
O 	 3.838942 	 -3.236826 	 6.695212 
O 	 6.276832 	 -0.935554 	 5.648497 
O 	 -4.594715 	 -5.234375 	 -1.118403 
O 	 2.636822 	 -2.575262 	 -1.421554 
O 	 1.117314 	 -6.723448 	 -0.552847 
O 	 3.521602 	 1.082119 	 7.070140 
O 	 3.598002 	 -6.541290 	 7.260378 
O 	 -1.874975 	 0.994710 	 7.231977 
O 	 -1.659900 	 -6.104400 	 -2.060806 
O 	 2.903289 	 4.680248 	 -3.172998 
O 	 1.796693 	 -5.060081 	 -5.573100 
O 	 -3.849059 	 -3.326707 	 2.398915 
O 	 0.730743 	 1.707935 	 2.086161 
O 	 6.891204 	 6.668182 	 4.984631 
O 	 0.718950 	 3.596664 	 5.780996 
O 	 1.220688 	 6.142233 	 4.825512 
O 	 -7.540495 	 1.442070 	 -6.338520 
O 	 -6.513120 	 4.403700 	 -2.046336 
O 	 -3.022126 	 -3.167671 	 -6.606938 
O 	 4.121965 	 5.910243 	 6.447636 
O 	 3.065740 	 -1.080423 	 -3.727903 
O 	 -3.884568 	 1.630330 	 0.813689 
O 	 0.751247 	 0.036287 	 6.539503 
O 	 2.006974 	 -6.747080 	 3.091012 
O 	 -0.878837 	 3.323299 	 3.537571 
O 	 -4.618184 	 0.278054 	 -6.420486 
O 	 6.842175 	 -5.316099 	 5.378191 
O 	 -6.055223 	 -0.793228 	 -3.921689 
O 	 -4.865940 	 -4.227451 	 -4.191495 
O 	 -4.733735 	 -1.047257 	 -1.680750 
O 	 4.689389 	 4.593738 	 -5.926655 
O 	 -6.031886 	 -2.412697 	 -6.230100 
O 	 -5.521550 	 3.783650 	 4.922328 
O 	 1.670408 	 6.056715 	 0.947584 
O 	 -2.299670 	 -1.539947 	 -4.348389 
O 	 -5.211745 	 5.183736 	 7.066242 
O 	 6.011352 	 -5.124418 	 -6.771219 
O 	 -5.327512 	 -2.470695 	 5.166564 
O 	 5.608390 	 -0.642455 	 -6.675546 
O 	 2.056628 	 -0.875293 	 0.651951 
O 	 3.403656 	 -2.036099 	 4.163102 
O 	 2.500434 	 4.088110 	 2.751359 
O 	 1.360028 	 -5.600820 	 6.194828 
O 	 3.549836 	 3.189038 	 5.370712 
O 	 1.842286 	 -2.402646 	 -5.870081 
O 	 5.653085 	 2.413485 	 -3.977066 
O 	 -1.681780 	 -6.282171 	 5.441397 
O 	 -5.397178 	 -5.239899 	 6.570078 
O 	 -6.544403 	 1.204947 	 2.225989 
O 	 4.156904 	 7.318635 	 -3.912501 
O 	 2.664263 	 1.553650 	 -0.532686 
K 	 -2.386160 	 4.189261 	 1.091927 
