333
conformation = 41
H 	 -2.651168 	 6.691997 	 -4.451563 
H 	 -2.771219 	 -6.858104 	 -3.700899 
H 	 -6.207494 	 3.707942 	 1.036899 
H 	 -5.015405 	 3.230531 	 0.177216 
H 	 -0.889301 	 6.702938 	 3.076247 
H 	 -1.150879 	 -7.144041 	 1.963600 
H 	 -5.373991 	 -7.001115 	 -5.960046 
H 	 -3.832032 	 -7.264744 	 -6.050196 
H 	 -1.746303 	 5.381694 	 6.083477 
H 	 -2.273869 	 5.408500 	 4.605461 
H 	 -4.488596 	 4.863671 	 3.602012 
H 	 -3.943851 	 6.224397 	 3.352916 
H 	 1.371673 	 3.152089 	 -5.604059 
H 	 0.839346 	 4.485778 	 -6.154749 
H 	 -2.299291 	 -0.982679 	 3.965708 
H 	 -0.724676 	 -0.712046 	 3.437596 
H 	 1.167234 	 5.090850 	 -2.137622 
H 	 0.780990 	 5.676269 	 -0.769755 
H 	 -0.787750 	 -2.646894 	 3.572913 
H 	 0.476796 	 -3.554332 	 3.853472 
H 	 7.192640 	 7.593049 	 -4.851304 
H 	 7.147209 	 -6.024110 	 -5.690700 
H 	 1.835666 	 -0.766769 	 3.858925 
H 	 0.951688 	 0.493130 	 3.138069 
H 	 6.346325 	 -2.841212 	 2.989616 
H 	 6.427736 	 -2.200720 	 4.480175 
H 	 -4.218367 	 -1.074057 	 5.665915 
H 	 -2.906180 	 -0.061658 	 5.920890 
H 	 5.262091 	 7.598743 	 -1.080919 
H 	 4.294201 	 -6.134769 	 -0.667375 
H 	 -4.538847 	 -6.308724 	 3.556726 
H 	 -2.966718 	 -6.421442 	 3.831163 
H 	 -7.419210 	 5.765626 	 2.291783 
H 	 6.316532 	 4.559906 	 2.134521 
H 	 -0.355441 	 2.334628 	 -0.109509 
H 	 -1.243282 	 1.152566 	 -0.633609 
H 	 2.170462 	 1.708183 	 -4.129273 
H 	 0.772792 	 0.921384 	 -3.576314 
H 	 4.205592 	 0.650192 	 -1.769097 
H 	 5.305844 	 0.951572 	 -2.854219 
H 	 1.812649 	 -5.184979 	 -3.833581 
H 	 2.012322 	 -4.270173 	 -2.546177 
H 	 5.589034 	 -1.554868 	 -2.113651 
H 	 5.555708 	 -3.087453 	 -2.253264 
H 	 -2.885605 	 3.991465 	 -4.237215 
H 	 -4.274078 	 4.625618 	 -4.901514 
H 	 -1.508727 	 -6.298319 	 -7.304292 
H 	 -1.528691 	 -6.510245 	 -5.753925 
H 	 5.646199 	 3.371711 	 5.893952 
H 	 5.470357 	 3.869046 	 -7.571800 
H 	 4.958805 	 7.505992 	 3.218834 
H 	 4.157921 	 -6.412865 	 2.381998 
H 	 3.052797 	 -3.930682 	 1.459592 
H 	 2.303355 	 -4.829179 	 2.293613 
H 	 5.416685 	 -5.158822 	 -2.957632 
H 	 3.999620 	 -4.809048 	 -3.442612 
H 	 -3.455044 	 -3.627591 	 -0.691214 
H 	 -3.114880 	 -3.589796 	 0.823147 
H 	 -2.822771 	 1.655417 	 -2.995736 
H 	 -3.478913 	 2.433804 	 -1.755640 
H 	 -6.603115 	 -6.835872 	 2.363535 
H 	 -5.698628 	 7.372673 	 1.296084 
H 	 -3.502850 	 1.292100 	 4.658590 
H 	 -3.967747 	 2.755691 	 4.718149 
H 	 -4.655164 	 6.408315 	 -1.457157 
H 	 -5.265944 	 5.620950 	 -2.573526 
H 	 -2.874742 	 -1.283074 	 -0.085070 
H 	 -2.132537 	 -0.878547 	 1.308916 
H 	 -1.260513 	 3.620689 	 -7.139743 
H 	 -2.600766 	 4.095131 	 -6.753734 
H 	 -6.320007 	 3.511846 	 -4.888308 
H 	 -7.045583 	 4.922880 	 -5.142999 
H 	 -0.653436 	 2.917599 	 -3.070229 
H 	 -0.562421 	 3.513053 	 -4.426704 
H 	 4.529522 	 4.753801 	 -2.037807 
H 	 5.680040 	 3.737004 	 -2.185207 
H 	 5.131180 	 0.794909 	 4.497327 
H 	 4.826516 	 0.945367 	 3.072710 
H 	 -6.068097 	 -0.507406 	 1.662146 
H 	 -6.770460 	 -1.715446 	 1.121711 
H 	 3.870917 	 -3.516034 	 -0.535461 
H 	 5.072187 	 -4.203991 	 0.331860 
H 	 -6.335572 	 1.820515 	 5.323470 
H 	 -5.687525 	 0.382759 	 5.590079 
H 	 -0.309084 	 -2.930620 	 5.806218 
H 	 0.019560 	 -3.592166 	 7.289536 
H 	 -3.628229 	 -7.004833 	 1.335019 
H 	 -4.183852 	 -6.509110 	 -0.065846 
H 	 4.338443 	 -1.019210 	 2.725067 
H 	 3.640010 	 -0.720932 	 1.450627 
H 	 6.620495 	 5.556227 	 -3.222811 
H 	 5.580483 	 6.410140 	 -4.043735 
H 	 -1.585249 	 -4.786309 	 0.426366 
H 	 -0.224633 	 -5.645241 	 0.288878 
H 	 0.880240 	 -3.288241 	 1.209126 
H 	 -0.602919 	 -3.039257 	 0.835807 
H 	 4.566433 	 2.362593 	 -4.495006 
H 	 3.027962 	 2.127503 	 -5.971798 
H 	 -0.962003 	 -0.643591 	 -5.119941 
H 	 -0.341807 	 0.532813 	 -5.957029 
H 	 1.547093 	 7.010446 	 -6.969446 
H 	 0.018287 	 7.010491 	 -6.992406 
H 	 -7.621688 	 -4.121449 	 0.528829 
H 	 6.732976 	 -2.895205 	 -0.323816 
H 	 -6.433483 	 1.076046 	 -3.998446 
H 	 -5.252452 	 1.747895 	 -3.117980 
H 	 7.085368 	 -1.939407 	 -4.463448 
H 	 5.979928 	 -2.992063 	 -4.417017 
H 	 5.297670 	 2.825265 	 0.777679 
H 	 5.143623 	 4.229557 	 0.265449 
H 	 -5.731085 	 -4.555133 	 3.263097 
H 	 -6.872298 	 -5.431714 	 3.908863 
H 	 -2.586684 	 5.933358 	 -1.969521 
H 	 -1.227050 	 5.110958 	 -1.722202 
H 	 -7.681287 	 -6.472653 	 -2.012877 
H 	 -7.246590 	 -5.439235 	 -3.069754 
H 	 6.757158 	 6.102168 	 -1.080271 
H 	 -7.528729 	 7.054507 	 0.035945 
H 	 5.791335 	 0.873907 	 -0.496222 
H 	 5.581128 	 0.557251 	 1.006652 
H 	 3.420621 	 -2.786090 	 7.287550 
H 	 3.276962 	 -4.152683 	 6.398869 
H 	 6.910298 	 -0.282150 	 5.495577 
H 	 5.847399 	 -0.965960 	 6.486141 
H 	 -4.556365 	 -5.177873 	 -2.271347 
H 	 -5.586073 	 -5.211893 	 -1.105000 
H 	 1.969766 	 -2.055731 	 -0.929640 
H 	 2.451094 	 -2.071885 	 -2.426107 
H 	 1.545816 	 -6.613372 	 -1.637759 
H 	 1.485216 	 -7.091479 	 -0.187270 
H 	 2.498106 	 0.757826 	 6.904950 
H 	 3.983403 	 0.423430 	 6.982051 
H 	 4.192824 	 -6.040567 	 -7.248189 
H 	 3.761551 	 7.546353 	 6.863558 
H 	 -0.984405 	 0.730601 	 6.914365 
H 	 -2.087848 	 1.831218 	 6.861616 
H 	 -2.141313 	 -5.501827 	 -1.554700 
H 	 -1.114125 	 -6.570792 	 -1.878238 
H 	 2.636093 	 3.950243 	 -3.842917 
H 	 2.801056 	 5.530245 	 -3.764609 
H 	 0.811772 	 -5.407235 	 -5.952728 
H 	 1.537402 	 -3.973572 	 -5.936226 
H 	 -4.511172 	 -2.508785 	 2.217970 
H 	 -3.157115 	 -2.936899 	 2.743187 
H 	 1.313330 	 2.256844 	 1.982504 
H 	 -0.192141 	 2.364575 	 2.457329 
H 	 6.892923 	 5.808784 	 4.367655 
H 	 6.497522 	 6.393277 	 5.685364 
H 	 1.586725 	 3.557111 	 5.574343 
H 	 0.425542 	 3.748574 	 6.519243 
H 	 1.564118 	 5.970721 	 5.508643 
H 	 0.235931 	 5.837286 	 4.970694 
H 	 -6.696619 	 1.305256 	 -6.537055 
H 	 6.950128 	 2.013940 	 -7.149801 
H 	 -6.889689 	 3.672448 	 -2.679878 
H 	 -6.273827 	 4.062286 	 -1.295646 
H 	 -2.310554 	 -3.179776 	 -7.424928 
H 	 -3.011335 	 -3.804614 	 -6.107181 
H 	 4.002058 	 5.509625 	 7.174210 
H 	 3.950838 	 5.164009 	 5.739158 
H 	 2.329095 	 -0.187050 	 -3.675166 
H 	 3.707627 	 -0.796505 	 -3.638910 
H 	 -3.534103 	 1.008899 	 0.567872 
H 	 -4.633852 	 1.581295 	 1.621121 
H 	 0.834336 	 0.023577 	 5.404001 
H 	 0.434834 	 -0.803148 	 6.654388 
H 	 1.887435 	 7.553629 	 2.256114 
H 	 1.517184 	 -7.241703 	 3.692354 
H 	 -1.898488 	 3.127484 	 3.880917 
H 	 -0.458543 	 3.530317 	 4.251480 
H 	 -3.931470 	 0.542065 	 -6.758345 
H 	 -4.827766 	 -0.663891 	 -6.800139 
H 	 6.461772 	 -4.447264 	 4.763428 
H 	 6.133230 	 -6.105241 	 4.693667 
H 	 -5.738808 	 -1.008395 	 -3.355848 
H 	 -5.413533 	 -0.556494 	 -4.674877 
H 	 -5.333548 	 -3.696180 	 -4.921521 
H 	 -5.073385 	 -5.186961 	 -4.571964 
H 	 -4.411443 	 -0.061539 	 -1.824006 
H 	 -5.419438 	 -0.863086 	 -1.037178 
H 	 5.320594 	 5.058725 	 -5.527105 
H 	 4.183716 	 3.939546 	 -5.443577 
H 	 -7.118543 	 -2.614162 	 -6.234801 
H 	 -5.906928 	 -3.069815 	 -7.105804 
H 	 -6.373005 	 4.187371 	 4.131587 
H 	 -5.657157 	 4.402712 	 5.526097 
H 	 1.734609 	 5.502113 	 1.468997 
H 	 0.612070 	 6.599102 	 1.250436 
H 	 -2.642487 	 -2.220651 	 -3.964891 
H 	 -2.724060 	 -1.786387 	 -5.367723 
H 	 -5.681624 	 4.843354 	 -7.170879 
H 	 -5.262894 	 6.127195 	 7.256281 
H 	 6.345197 	 -5.009974 	 7.194536 
H 	 5.748281 	 -4.246421 	 -6.449894 
H 	 -5.412724 	 -3.260245 	 5.540092 
H 	 -6.390301 	 -2.454936 	 4.581546 
H 	 6.089773 	 0.235802 	 -6.655488 
H 	 5.740880 	 -1.172336 	 -6.091269 
H 	 1.083975 	 -1.258481 	 0.635792 
H 	 1.849243 	 0.131236 	 0.152257 
H 	 2.921299 	 -2.685637 	 3.386362 
H 	 3.346121 	 -2.436767 	 4.936509 
H 	 2.526067 	 4.334177 	 3.535063 
H 	 3.295178 	 4.062286 	 2.255840 
H 	 2.065470 	 -5.907982 	 6.455270 
H 	 1.624945 	 -5.554016 	 5.011935 
H 	 3.433826 	 2.617045 	 5.848986 
H 	 3.730376 	 2.795586 	 4.381016 
H 	 0.836744 	 -1.712037 	 -5.991539 
H 	 2.063605 	 -1.907694 	 -5.142977 
H 	 6.120244 	 2.704138 	 -4.679219 
H 	 2.100679 	 1.684288 	 -1.594445 
H 	 -1.071468 	 -5.679508 	 5.203357 
H 	 -1.546067 	 -7.197487 	 5.335007 
H 	 -5.175884 	 -5.877532 	 6.909167 
H 	 -6.375761 	 -5.461271 	 5.912521 
H 	 -7.110163 	 1.226719 	 2.943667 
H 	 -7.424500 	 1.211226 	 1.362226 
H 	 3.860124 	 -6.967194 	 -3.160156 
H 	 3.830541 	 -6.770106 	 -4.619934 
H 	 2.840200 	 2.431799 	 -0.359909 
O 	 -2.641526 	 -7.236624 	 -4.592170 
O 	 -5.712358 	 3.960891 	 0.264781 
O 	 -0.875187 	 6.815677 	 2.076690 
O 	 -4.675064 	 -7.243596 	 -6.596707 
O 	 -1.757998 	 5.950170 	 5.271383 
O 	 -3.673492 	 5.276069 	 3.246115 
O 	 0.630943 	 3.516169 	 -6.155237 
O 	 -1.662918 	 -1.025354 	 3.210976 
O 	 0.519590 	 4.938805 	 -1.440386 
O 	 -0.440645 	 -3.380076 	 4.110113 
O 	 -7.103834 	 -6.578224 	 -5.162596 
O 	 0.996724 	 -0.233889 	 3.842021 
O 	 6.655296 	 -3.000458 	 3.922931 
O 	 -3.600040 	 -0.409722 	 5.279286 
O 	 4.303216 	 -7.009484 	 -1.087238 
O 	 -3.732970 	 -6.910461 	 3.427128 
O 	 7.148210 	 4.865839 	 2.629495 
O 	 -1.116527 	 2.120848 	 -0.677238 
O 	 1.698678 	 1.188577 	 -3.268908 
O 	 5.104838 	 0.360679 	 -2.083008 
O 	 2.142681 	 -5.171481 	 -2.891924 
O 	 6.147141 	 -2.336377 	 -2.000186 
O 	 -3.307909 	 4.671026 	 -4.885066 
O 	 -0.968367 	 -6.112898 	 -6.510325 
O 	 6.171424 	 3.474287 	 6.732743 
O 	 5.038570 	 -6.502732 	 2.821124 
O 	 2.367005 	 -3.883186 	 2.164193 
O 	 4.934412 	 -4.923309 	 -3.771485 
O 	 -2.676688 	 -3.538909 	 -0.083556 
O 	 -3.640817 	 1.785762 	 -2.453817 
O 	 -6.597336 	 7.278582 	 1.743977 
O 	 -3.235037 	 2.216252 	 4.476220 
O 	 -4.685177 	 6.401135 	 -2.439135 
O 	 -2.378998 	 -0.573356 	 0.384136 
O 	 -2.122354 	 3.906173 	 -7.561828 
O 	 -6.197507 	 4.451581 	 -5.351404 
O 	 -1.206109 	 3.209918 	 -3.774153 
O 	 5.440575 	 4.573029 	 -1.697372 
O 	 5.050706 	 1.520081 	 3.802200 
O 	 -5.877117 	 -1.375909 	 1.251640 
O 	 4.149952 	 -4.310507 	 0.016143 
O 	 -6.549465 	 0.839129 	 5.308409 
O 	 -0.355266 	 -2.801581 	 6.815013 
O 	 -4.095834 	 7.601509 	 0.513881 
O 	 4.571234 	 -0.703858 	 1.847503 
O 	 6.417633 	 5.871932 	 -4.179190 
O 	 -0.908296 	 -5.328259 	 0.900131 
O 	 0.200775 	 -2.606631 	 1.172857 
O 	 2.969768 	 2.502702 	 -5.062044 
O 	 -0.162450 	 -0.119234 	 -5.232493 
O 	 0.780213 	 6.418959 	 -6.876515 
O 	 6.872562 	 -3.275813 	 0.584223 
O 	 -5.937678 	 1.946513 	 -3.743553 
O 	 6.407941 	 -2.381484 	 -5.012320 
O 	 4.948041 	 3.706600 	 1.002018 
O 	 -6.077251 	 -5.503688 	 3.360624 
O 	 -2.105337 	 5.314146 	 -1.307372 
O 	 7.120663 	 -5.529088 	 -2.263062 
O 	 7.102497 	 7.018716 	 -0.905378 
O 	 6.036969 	 1.188705 	 0.444361 
O 	 3.679799 	 -3.260961 	 6.468774 
O 	 6.171527 	 -0.968461 	 5.541880 
O 	 -4.632915 	 -5.132733 	 -1.287140 
O 	 2.520168 	 -2.605619 	 -1.572060 
O 	 0.982844 	 -6.599517 	 -0.818923 
O 	 3.372832 	 1.175036 	 6.899284 
O 	 3.450351 	 -6.435374 	 7.137754 
O 	 -1.978637 	 0.878315 	 7.001339 
O 	 -1.835071 	 -6.045759 	 -2.267169 
O 	 2.644996 	 4.717703 	 -3.260403 
O 	 1.628778 	 -4.963113 	 -5.686123 
O 	 -3.906518 	 -3.286909 	 2.271717 
O 	 0.472562 	 1.772316 	 1.926829 
O 	 6.876472 	 6.652585 	 4.828778 
O 	 0.603748 	 3.621337 	 5.591771 
O 	 1.096528 	 6.223799 	 4.683193 
O 	 -7.669916 	 1.511534 	 -6.369446 
O 	 -6.586263 	 4.413429 	 -2.146909 
O 	 -3.059537 	 -3.139193 	 -6.763661 
O 	 4.058535 	 5.932545 	 6.313110 
O 	 2.806836 	 -1.042211 	 -3.896003 
O 	 -4.059386 	 1.782999 	 0.833247 
O 	 0.736732 	 0.111346 	 6.447415 
O 	 1.842381 	 -6.658121 	 2.945658 
O 	 -1.040354 	 3.316453 	 3.426509 
O 	 -4.812793 	 0.283661 	 -6.582441 
O 	 6.661071 	 -5.384281 	 5.127012 
O 	 -6.245304 	 -0.748236 	 -4.182177 
O 	 -4.907502 	 -4.289322 	 -4.286976 
O 	 -4.783420 	 -0.979631 	 -1.823135 
O 	 4.531904 	 4.695366 	 -5.984898 
O 	 -6.148386 	 -2.496750 	 -6.360026 
O 	 -5.703276 	 3.832739 	 4.747032 
O 	 1.409338 	 6.149969 	 0.838226 
O 	 -2.385100 	 -1.472649 	 -4.518778 
O 	 -5.267925 	 5.173594 	 6.927451 
O 	 5.983386 	 -5.082757 	 -6.811808 
O 	 -5.492666 	 -2.445347 	 4.965214 
O 	 5.473383 	 -0.514082 	 -6.790886 
O 	 1.935931 	 -0.804730 	 0.539668 
O 	 3.195123 	 -1.993165 	 4.032657 
O 	 2.390286 	 4.112734 	 2.585044 
O 	 1.239940 	 -5.558183 	 5.934173 
O 	 3.452768 	 3.319749 	 5.173845 
O 	 1.626810 	 -2.294617 	 -5.918221 
O 	 5.474463 	 2.415287 	 -3.997346 
O 	 -1.858706 	 -6.250260 	 5.302177 
O 	 -5.517507 	 -5.142944 	 6.331402 
O 	 -6.664063 	 1.244323 	 2.082698 
O 	 4.003887 	 7.381841 	 -4.008518 
O 	 2.615318 	 1.547022 	 -0.755739 
K 	 -2.488240 	 4.250841 	 0.931126 
