333
conformation = 20
H 	 -2.853667 	 6.810693 	 -4.246977 
H 	 -2.677015 	 -6.662748 	 -3.632503 
H 	 -6.393129 	 4.029163 	 1.081506 
H 	 -5.238037 	 3.257569 	 0.382404 
H 	 -0.753449 	 6.944649 	 3.230739 
H 	 -1.207327 	 -7.070482 	 2.047753 
H 	 -5.408365 	 -7.019876 	 -5.757736 
H 	 -3.837769 	 -6.941036 	 -5.916291 
H 	 -1.869982 	 5.449157 	 6.120436 
H 	 -2.449601 	 5.677985 	 4.708218 
H 	 -4.399678 	 4.863742 	 3.867537 
H 	 -3.806624 	 6.371745 	 3.455944 
H 	 1.412963 	 3.203650 	 -5.710102 
H 	 0.927781 	 4.668068 	 -6.111728 
H 	 -2.294127 	 -0.822165 	 4.065031 
H 	 -0.946857 	 -0.344345 	 3.609513 
H 	 1.153236 	 5.117743 	 -2.110316 
H 	 0.605595 	 5.854146 	 -0.735086 
H 	 -0.785491 	 -2.672194 	 3.594721 
H 	 0.439127 	 -3.448368 	 3.864554 
H 	 -7.555543 	 -7.088056 	 -4.629507 
H 	 7.107848 	 -5.784324 	 -5.545431 
H 	 1.745655 	 -0.709421 	 3.934223 
H 	 1.019277 	 0.480205 	 3.172778 
H 	 6.283188 	 -2.638071 	 3.133309 
H 	 6.253141 	 -2.099239 	 4.641101 
H 	 -4.230870 	 -1.083652 	 5.672482 
H 	 -3.189186 	 -0.029397 	 6.238967 
H 	 5.271165 	 -7.124399 	 -0.800415 
H 	 4.221408 	 -6.093439 	 -0.368671 
H 	 -4.558734 	 -6.252172 	 3.467736 
H 	 -3.151491 	 -6.428457 	 4.218523 
H 	 -7.646048 	 5.940148 	 2.264126 
H 	 6.400198 	 4.654304 	 2.177907 
H 	 -0.448052 	 2.167062 	 0.120699 
H 	 -1.554199 	 1.314829 	 -0.367225 
H 	 2.146183 	 1.844824 	 -4.075376 
H 	 0.774914 	 0.991475 	 -3.609653 
H 	 4.051833 	 0.714701 	 -1.727884 
H 	 5.184779 	 1.208787 	 -2.764855 
H 	 1.831509 	 -4.820039 	 -3.798988 
H 	 2.180169 	 -4.102996 	 -2.473993 
H 	 5.444053 	 -1.449344 	 -1.979152 
H 	 5.627202 	 -3.081596 	 -2.195911 
H 	 -3.072991 	 4.322781 	 -4.014508 
H 	 -4.374898 	 4.754863 	 -4.721757 
H 	 -1.451852 	 -6.283171 	 -7.322178 
H 	 -1.495203 	 -6.348222 	 -5.692835 
H 	 5.780141 	 3.779869 	 6.006065 
H 	 5.363348 	 4.014783 	 -7.355069 
H 	 5.147625 	 7.664092 	 3.211104 
H 	 4.165088 	 -6.255150 	 2.518104 
H 	 2.916343 	 -3.761087 	 1.507867 
H 	 2.113294 	 -4.699759 	 2.490311 
H 	 5.334615 	 -5.171574 	 -2.912552 
H 	 3.981187 	 -4.640575 	 -3.511275 
H 	 -3.301892 	 -3.535595 	 -0.707731 
H 	 -3.321928 	 -3.196619 	 0.818005 
H 	 -2.971245 	 2.018523 	 -2.903779 
H 	 -3.384703 	 2.610459 	 -1.631955 
H 	 -6.614955 	 -6.636946 	 2.394511 
H 	 -5.812272 	 7.345725 	 1.441429 
H 	 -3.489931 	 1.406947 	 4.424146 
H 	 -4.146355 	 2.772426 	 4.616512 
H 	 -4.812517 	 6.776483 	 -1.410171 
H 	 -5.179858 	 5.820809 	 -2.567014 
H 	 -2.699215 	 -1.256541 	 0.146118 
H 	 -2.150795 	 -0.615074 	 1.410104 
H 	 -1.454201 	 3.821291 	 -6.919580 
H 	 -2.921750 	 4.150209 	 -6.757742 
H 	 -6.404115 	 3.632440 	 -5.046912 
H 	 -7.045645 	 5.063932 	 -5.109562 
H 	 -0.863624 	 3.187394 	 -2.769465 
H 	 -0.595777 	 3.694184 	 -4.300177 
H 	 4.495099 	 4.723943 	 -2.074597 
H 	 5.789053 	 3.923096 	 -1.994141 
H 	 4.707176 	 1.288415 	 4.683698 
H 	 4.688361 	 1.001221 	 3.183424 
H 	 -5.836022 	 -0.171395 	 1.435548 
H 	 -6.831058 	 -1.412408 	 1.305526 
H 	 3.720580 	 -3.339374 	 -0.525103 
H 	 4.919757 	 -3.894905 	 0.282944 
H 	 -6.434907 	 2.041627 	 5.526658 
H 	 -5.859138 	 0.633720 	 5.721343 
H 	 -0.328976 	 -2.608558 	 5.930628 
H 	 -0.032504 	 -3.458485 	 6.979972 
H 	 -3.722454 	 -6.763086 	 1.317869 
H 	 -4.287416 	 -6.531594 	 -0.139291 
H 	 4.562187 	 -1.043393 	 2.870152 
H 	 3.667148 	 -0.621927 	 1.641235 
H 	 6.618367 	 5.906033 	 -3.113789 
H 	 5.495405 	 6.542893 	 -4.123341 
H 	 -1.730301 	 -4.694348 	 0.719474 
H 	 -0.597342 	 -5.341805 	 0.065379 
H 	 0.808420 	 -3.135622 	 1.451746 
H 	 -0.585200 	 -3.099736 	 0.887745 
H 	 4.481696 	 2.534406 	 -4.328829 
H 	 3.086310 	 2.184108 	 -5.834369 
H 	 -0.825401 	 -0.710134 	 -4.962339 
H 	 -0.732469 	 0.571579 	 -5.763025 
H 	 1.465840 	 7.174027 	 -6.858505 
H 	 -0.003814 	 7.078005 	 -6.597589 
H 	 -7.704712 	 -4.000018 	 0.338634 
H 	 6.456956 	 -2.675793 	 -0.087467 
H 	 -6.465413 	 1.329175 	 -3.771019 
H 	 -5.207823 	 1.790536 	 -3.036397 
H 	 6.990921 	 -1.771955 	 -4.445040 
H 	 5.774989 	 -2.790738 	 -4.314447 
H 	 5.045356 	 2.946375 	 0.845729 
H 	 5.055143 	 4.338912 	 0.192803 
H 	 -5.641050 	 -4.518619 	 3.620290 
H 	 -6.891289 	 -5.245100 	 4.116245 
H 	 -2.575339 	 5.972351 	 -1.851155 
H 	 -1.153063 	 5.211571 	 -1.538181 
H 	 7.107696 	 -6.352407 	 -2.110006 
H 	 -7.327306 	 -5.216151 	 -3.029231 
H 	 6.596814 	 6.289430 	 -0.856715 
H 	 -7.569810 	 7.222858 	 0.125748 
H 	 5.877318 	 1.112884 	 -0.453524 
H 	 5.433150 	 0.554836 	 0.907794 
H 	 3.188939 	 -2.789333 	 7.283982 
H 	 3.423574 	 -4.110210 	 6.663322 
H 	 6.835416 	 -0.105649 	 5.658193 
H 	 5.862829 	 -0.823031 	 6.569321 
H 	 -4.400429 	 -5.297690 	 -2.137567 
H 	 -5.620268 	 -5.048954 	 -1.221267 
H 	 2.157451 	 -1.904443 	 -0.850911 
H 	 2.701952 	 -1.947374 	 -2.271543 
H 	 1.459550 	 -6.036009 	 -1.555712 
H 	 1.517041 	 -6.927498 	 -0.211819 
H 	 2.483481 	 0.787099 	 6.789839 
H 	 4.018113 	 0.730741 	 7.120641 
H 	 4.235230 	 -5.887692 	 -7.282999 
H 	 3.662977 	 -6.977382 	 6.620953 
H 	 -1.019226 	 0.796900 	 6.884793 
H 	 -2.264650 	 1.830145 	 6.835944 
H 	 -2.211379 	 -5.387838 	 -1.437583 
H 	 -1.307756 	 -6.565083 	 -1.825666 
H 	 2.280149 	 4.221799 	 -3.821061 
H 	 2.815356 	 5.611615 	 -3.680049 
H 	 0.744932 	 -5.313678 	 -5.900439 
H 	 1.410801 	 -3.833474 	 -5.748260 
H 	 -4.615287 	 -2.436859 	 2.336589 
H 	 -3.201688 	 -2.735122 	 2.921985 
H 	 1.018768 	 2.637204 	 1.997683 
H 	 -0.342912 	 2.420968 	 2.585361 
H 	 6.915674 	 5.946659 	 4.371650 
H 	 6.620278 	 6.528787 	 5.799590 
H 	 1.511979 	 3.589926 	 5.655655 
H 	 0.313571 	 3.812441 	 6.628473 
H 	 1.652078 	 6.084875 	 5.477157 
H 	 0.264063 	 5.782784 	 4.770204 
H 	 -6.798836 	 1.327277 	 -6.341896 
H 	 7.024107 	 2.346655 	 -6.932030 
H 	 -6.745741 	 3.607577 	 -2.522330 
H 	 -6.349970 	 4.304700 	 -1.123096 
H 	 -2.313067 	 -3.056008 	 -7.322761 
H 	 -2.734195 	 -3.779804 	 -6.196626 
H 	 3.977297 	 5.847461 	 -7.496022 
H 	 4.088023 	 5.121301 	 6.004902 
H 	 2.296749 	 -0.037637 	 -3.559073 
H 	 3.666687 	 -0.762653 	 -3.786441 
H 	 -3.637301 	 1.176172 	 0.799364 
H 	 -4.541452 	 1.762483 	 1.854510 
H 	 0.652871 	 0.184923 	 5.563195 
H 	 0.501949 	 -0.607453 	 7.019480 
H 	 1.683127 	 7.647095 	 2.466863 
H 	 1.906109 	 -6.821012 	 3.922457 
H 	 -1.945195 	 2.923089 	 3.618581 
H 	 -0.630109 	 3.355465 	 4.353496 
H 	 -3.952280 	 0.634830 	 -6.307276 
H 	 -4.879847 	 -0.572036 	 -6.696282 
H 	 6.221259 	 -4.484562 	 4.682869 
H 	 6.057443 	 -5.962695 	 4.691082 
H 	 -5.853343 	 -0.703097 	 -3.288998 
H 	 -5.780238 	 -0.444544 	 -4.915908 
H 	 -5.453663 	 -3.799568 	 -4.841054 
H 	 -5.226796 	 -5.162206 	 -4.250623 
H 	 -4.203587 	 -0.037848 	 -1.831677 
H 	 -5.204480 	 -0.770437 	 -0.827318 
H 	 5.268913 	 5.041643 	 -5.383560 
H 	 3.924117 	 4.305901 	 -5.307912 
H 	 -7.035829 	 -2.771055 	 -6.178788 
H 	 -5.836697 	 -2.775278 	 -7.216464 
H 	 -6.547664 	 4.249745 	 4.227016 
H 	 -5.777827 	 4.529016 	 5.561440 
H 	 1.648409 	 5.535325 	 1.367942 
H 	 0.410779 	 6.367982 	 1.453480 
H 	 -2.465246 	 -2.093394 	 -3.835740 
H 	 -2.875862 	 -1.654697 	 -5.327827 
H 	 -5.658645 	 5.001009 	 -6.976307 
H 	 -5.132992 	 6.227928 	 6.983048 
H 	 6.494021 	 -4.590667 	 -7.455536 
H 	 5.664723 	 -4.126479 	 -6.263877 
H 	 -5.437274 	 -3.203122 	 5.501207 
H 	 -6.477347 	 -2.436057 	 4.716743 
H 	 6.080986 	 0.381522 	 -6.479098 
H 	 5.521890 	 -1.022982 	 -6.021976 
H 	 1.042424 	 -0.982985 	 0.856560 
H 	 1.823437 	 0.310213 	 0.299807 
H 	 2.856574 	 -2.609357 	 3.488017 
H 	 3.381130 	 -2.314586 	 4.916997 
H 	 2.354060 	 4.302791 	 3.590822 
H 	 3.332909 	 4.189943 	 2.284860 
H 	 1.856428 	 -5.665648 	 6.562739 
H 	 1.565395 	 -5.522909 	 5.039340 
H 	 3.550194 	 2.838774 	 5.939608 
H 	 3.770793 	 3.061344 	 4.435492 
H 	 0.832481 	 -1.481197 	 -6.160440 
H 	 2.065212 	 -1.567505 	 -5.137874 
H 	 6.138024 	 2.562318 	 -4.408922 
H 	 2.047905 	 1.933833 	 -1.506389 
H 	 -1.078043 	 -5.663440 	 5.223213 
H 	 -1.760060 	 -7.071482 	 5.454346 
H 	 -5.044978 	 -5.406837 	 7.051019 
H 	 -6.229023 	 -5.569291 	 6.060199 
H 	 -6.818134 	 1.248180 	 3.178704 
H 	 -7.595409 	 1.394438 	 1.710837 
H 	 3.936831 	 -6.902900 	 -3.007193 
H 	 3.764174 	 -6.809441 	 -4.625101 
H 	 2.975437 	 2.473136 	 -0.360490 
O 	 -2.688705 	 -7.134887 	 -4.498668 
O 	 -5.781587 	 4.054679 	 0.307402 
O 	 -0.976546 	 6.927091 	 2.298810 
O 	 -4.664865 	 -7.077695 	 -6.431182 
O 	 -1.747864 	 6.031760 	 5.337213 
O 	 -3.719341 	 5.398974 	 3.340721 
O 	 0.625987 	 3.738770 	 -6.086246 
O 	 -1.713574 	 -0.858322 	 3.279457 
O 	 0.504230 	 5.088738 	 -1.352361 
O 	 -0.454620 	 -3.308735 	 4.264973 
O 	 -7.122303 	 -6.347927 	 -5.086932 
O 	 0.946973 	 -0.082390 	 3.966543 
O 	 6.565444 	 -2.867145 	 4.041233 
O 	 -3.644399 	 -0.366535 	 5.427798 
O 	 4.313541 	 -6.936185 	 -0.906903 
O 	 -3.743828 	 -6.821029 	 3.500556 
O 	 7.100798 	 5.032677 	 2.697455 
O 	 -1.189017 	 2.226647 	 -0.564978 
O 	 1.650448 	 1.357490 	 -3.259746 
O 	 4.956789 	 0.494804 	 -2.024606 
O 	 2.158557 	 -4.988648 	 -2.886204 
O 	 6.107079 	 -2.203669 	 -2.000846 
O 	 -3.378249 	 4.807537 	 -4.834108 
O 	 -1.041792 	 -5.943077 	 -6.478561 
O 	 6.065249 	 3.623179 	 6.910119 
O 	 5.038468 	 -6.342476 	 2.917836 
O 	 2.322350 	 -3.780504 	 2.267867 
O 	 4.929560 	 -4.730763 	 -3.672924 
O 	 -2.692378 	 -3.334623 	 0.016329 
O 	 -3.664045 	 1.883270 	 -2.245050 
O 	 -6.707037 	 7.402257 	 1.833413 
O 	 -3.271291 	 2.362232 	 4.557235 
O 	 -4.616315 	 6.594735 	 -2.336140 
O 	 -2.383778 	 -0.408884 	 0.512952 
O 	 -2.235770 	 3.997923 	 -7.437880 
O 	 -6.254278 	 4.556580 	 -5.262743 
O 	 -1.248115 	 3.324164 	 -3.675814 
O 	 5.318190 	 4.646193 	 -1.518845 
O 	 5.058042 	 1.614432 	 3.883204 
O 	 -5.880333 	 -1.143757 	 1.355641 
O 	 4.012054 	 -4.125260 	 0.063211 
O 	 -6.626899 	 1.060558 	 5.387496 
O 	 -0.404920 	 -2.558764 	 6.907310 
O 	 -4.168322 	 7.674612 	 0.558325 
O 	 4.605018 	 -0.599034 	 1.998262 
O 	 6.352886 	 6.025144 	 -4.021148 
O 	 -0.936142 	 -5.215420 	 0.931305 
O 	 0.110611 	 -2.489122 	 1.240984 
O 	 2.949843 	 2.639712 	 -4.974207 
O 	 -0.231486 	 0.011756 	 -5.162677 
O 	 0.764967 	 6.500308 	 -6.753444 
O 	 6.804704 	 -3.144575 	 0.714427 
O 	 -5.936704 	 2.132199 	 -3.647069 
O 	 6.317132 	 -2.247913 	 -4.912074 
O 	 4.859399 	 3.887750 	 1.055164 
O 	 -6.183825 	 -5.308842 	 3.473325 
O 	 -2.111553 	 5.392128 	 -1.264890 
O 	 7.155056 	 -5.389690 	 -2.171771 
O 	 7.059092 	 7.133656 	 -0.794797 
O 	 5.935160 	 1.291343 	 0.525929 
O 	 3.606393 	 -3.169654 	 6.507706 
O 	 6.137182 	 -0.845233 	 5.633208 
O 	 -4.661716 	 -4.947658 	 -1.250738 
O 	 2.465624 	 -2.539074 	 -1.508200 
O 	 0.920140 	 -6.411515 	 -0.824554 
O 	 3.283098 	 1.342129 	 6.984890 
O 	 3.402925 	 -6.270686 	 7.258676 
O 	 -1.983924 	 0.908785 	 7.053679 
O 	 -1.906166 	 -5.889546 	 -2.217581 
O 	 2.527455 	 4.867701 	 -3.137046 
O 	 1.550987 	 -4.814608 	 -5.564735 
O 	 -3.901852 	 -3.153282 	 2.383794 
O 	 0.363409 	 1.924344 	 1.992556 
O 	 6.888042 	 6.746984 	 4.918503 
O 	 0.568127 	 3.733345 	 5.674399 
O 	 1.051656 	 6.383795 	 4.780519 
O 	 -7.723353 	 1.689207 	 -6.225034 
O 	 -6.636355 	 4.514173 	 -2.088584 
O 	 -3.045860 	 -2.990690 	 -6.698980 
O 	 4.049804 	 6.029997 	 6.419109 
O 	 2.701893 	 -0.931607 	 -3.790564 
O 	 -4.132470 	 2.003047 	 1.025006 
O 	 0.746925 	 0.259261 	 6.593379 
O 	 1.791477 	 -6.493112 	 3.027055 
O 	 -1.122522 	 3.460642 	 3.536290 
O 	 -4.907106 	 0.386024 	 -6.522526 
O 	 6.578995 	 -5.307947 	 5.158574 
O 	 -6.337723 	 -0.622239 	 -4.154179 
O 	 -4.883481 	 -4.238917 	 -4.176517 
O 	 -4.786337 	 -0.809632 	 -1.712042 
O 	 4.474757 	 4.872287 	 -5.886471 
O 	 -6.138354 	 -2.487014 	 -6.317980 
O 	 -5.803631 	 3.952183 	 4.790327 
O 	 1.264825 	 6.353884 	 1.005207 
O 	 -2.448856 	 -1.321457 	 -4.464428 
O 	 -5.280567 	 5.285573 	 7.046410 
O 	 6.007382 	 -4.973670 	 -6.661605 
O 	 -5.560334 	 -2.330907 	 5.031245 
O 	 5.410166 	 -0.312611 	 -6.700725 
O 	 1.928818 	 -0.642526 	 0.634622 
O 	 3.083335 	 -1.837228 	 4.105646 
O 	 2.372354 	 4.244040 	 2.625941 
O 	 1.195403 	 -5.390913 	 5.918785 
O 	 3.424100 	 3.507459 	 5.234065 
O 	 1.521154 	 -2.112486 	 -5.789035 
O 	 5.382805 	 2.528851 	 -3.797608 
O 	 -1.928095 	 -6.082500 	 5.401814 
O 	 -5.581098 	 -4.945090 	 6.364036 
O 	 -6.696730 	 1.375213 	 2.176693 
O 	 3.906438 	 7.493671 	 -3.885846 
O 	 2.641620 	 1.659882 	 -0.734993 
K 	 -2.515411 	 4.406941 	 1.025209 
