333
conformation = 5
H 	 -4.082499 	 -4.900060 	 2.283137 
H 	 -3.354905 	 -3.549924 	 2.947228 
H 	 -7.403093 	 -7.491344 	 -7.262947 
H 	 -6.538593 	 6.245602 	 7.137210 
H 	 -1.648612 	 -4.678669 	 -4.997095 
H 	 -1.950211 	 -3.988170 	 -6.309225 
H 	 -6.429776 	 -3.887564 	 0.723349 
H 	 -4.907562 	 -3.781644 	 0.948300 
H 	 -2.868380 	 -6.367666 	 -2.198756 
H 	 -3.330736 	 -5.960012 	 -3.658191 
H 	 -5.341993 	 -6.712849 	 -4.288696 
H 	 -4.842726 	 -5.414671 	 -4.902350 
H 	 0.585065 	 6.450319 	 0.652568 
H 	 -0.046258 	 -6.996786 	 0.384235 
H 	 -3.321987 	 2.542284 	 -4.295072 
H 	 -1.807926 	 2.624182 	 -4.767410 
H 	 0.356165 	 -6.664668 	 4.609437 
H 	 -0.082162 	 -6.026841 	 5.867618 
H 	 -1.786344 	 0.390335 	 -4.623514 
H 	 -0.506503 	 -0.490205 	 -4.344519 
H 	 6.469227 	 -3.905412 	 1.958583 
H 	 6.146750 	 -2.760081 	 1.014970 
H 	 0.665589 	 2.297022 	 -4.334800 
H 	 0.136118 	 3.668787 	 -5.053757 
H 	 5.445140 	 0.438607 	 -5.139237 
H 	 5.202075 	 1.044067 	 -3.630488 
H 	 -5.176114 	 1.914297 	 -2.884863 
H 	 -4.161439 	 2.865366 	 -1.960220 
H 	 4.345630 	 -3.938008 	 6.046309 
H 	 3.091897 	 -2.970554 	 6.134613 
H 	 -5.570338 	 -3.395134 	 -4.707035 
H 	 -4.222259 	 -3.365783 	 -3.979244 
H 	 6.472940 	 -5.859562 	 -6.022213 
H 	 5.439151 	 -7.128010 	 -6.059167 
H 	 -1.439191 	 5.201820 	 6.790502 
H 	 -2.763170 	 4.564132 	 6.203642 
H 	 1.244709 	 5.082349 	 2.652624 
H 	 -0.140495 	 4.401262 	 2.788418 
H 	 3.109941 	 3.975662 	 4.974764 
H 	 4.191279 	 4.416205 	 3.910575 
H 	 0.798970 	 -1.675816 	 2.804587 
H 	 1.122484 	 -1.031014 	 4.236819 
H 	 4.489588 	 1.675035 	 4.581386 
H 	 4.644825 	 0.134033 	 4.336391 
H 	 -3.873652 	 -7.320777 	 2.479521 
H 	 -5.353824 	 -6.928914 	 1.873646 
H 	 -2.401839 	 -2.945296 	 -0.793304 
H 	 -2.591893 	 -3.266147 	 0.703791 
H 	 4.896584 	 7.078892 	 -2.170867 
H 	 4.377815 	 7.160756 	 -0.697416 
H 	 4.363927 	 -4.139189 	 -5.244077 
H 	 3.187016 	 -3.256480 	 -5.488093 
H 	 1.971727 	 -0.865884 	 -6.749716 
H 	 1.121207 	 -1.606452 	 -5.737843 
H 	 4.500022 	 -2.078060 	 3.580926 
H 	 3.089941 	 -1.689422 	 3.163629 
H 	 -4.191648 	 -0.422128 	 5.913697 
H 	 -4.270752 	 -0.022796 	 7.422413 
H 	 -4.018330 	 5.190895 	 3.696332 
H 	 -4.297346 	 5.667461 	 5.140759 
H 	 7.233832 	 -3.481591 	 -6.006691 
H 	 -6.808136 	 -4.619041 	 -6.745957 
H 	 -4.382988 	 4.524445 	 -3.868262 
H 	 -5.125059 	 5.957913 	 -3.862326 
H 	 -5.797817 	 -4.895142 	 5.177150 
H 	 -6.096313 	 -5.831363 	 4.075556 
H 	 -3.231670 	 1.873152 	 6.830362 
H 	 -2.937091 	 2.676115 	 -6.854140 
H 	 -2.544436 	 7.069173 	 -0.100626 
H 	 -4.028616 	 -7.458097 	 -0.270828 
H 	 -7.347085 	 6.795915 	 1.564941 
H 	 6.947731 	 -6.792780 	 1.759767 
H 	 -1.807783 	 6.613633 	 3.890128 
H 	 -1.435605 	 6.657908 	 2.370237 
H 	 3.496489 	 -7.178538 	 4.600753 
H 	 4.990250 	 7.230118 	 4.717511 
H 	 3.723982 	 4.410808 	 -3.579125 
H 	 3.828789 	 4.047221 	 -5.081762 
H 	 -6.969230 	 3.051502 	 -6.780793 
H 	 7.214606 	 1.726675 	 -6.895711 
H 	 2.534007 	 -0.456692 	 5.900534 
H 	 3.807711 	 -0.483483 	 6.966917 
H 	 7.427676 	 5.242942 	 -2.811901 
H 	 -6.769295 	 3.891786 	 -2.609297 
H 	 -1.544843 	 0.744879 	 -2.311568 
H 	 -0.903519 	 -0.170611 	 -1.275415 
H 	 -4.688081 	 -3.749090 	 -6.978086 
H 	 -5.205600 	 -3.354145 	 6.539816 
H 	 3.662033 	 1.877288 	 -5.432418 
H 	 2.799317 	 2.383790 	 -6.582771 
H 	 5.654560 	 -5.931588 	 3.509265 
H 	 4.566621 	 -5.163795 	 2.837174 
H 	 -2.716701 	 -1.651080 	 7.420219 
H 	 -1.380892 	 -2.298781 	 6.686910 
H 	 -0.206801 	 0.131012 	 -6.538578 
H 	 -1.418535 	 0.034610 	 7.328792 
H 	 3.512458 	 5.710827 	 2.394967 
H 	 2.228448 	 5.204380 	 0.877423 
H 	 -1.747619 	 2.580699 	 2.003956 
H 	 -1.911903 	 3.660448 	 1.056139 
H 	 0.600531 	 -4.671442 	 -0.218560 
H 	 -0.857168 	 -4.777772 	 0.333981 
H 	 6.391705 	 -0.680773 	 6.837744 
H 	 5.717395 	 0.632422 	 6.615890 
H 	 -7.263589 	 4.467122 	 2.894215 
H 	 -5.981941 	 5.236419 	 3.453762 
H 	 5.998034 	 1.362073 	 2.197652 
H 	 4.948805 	 0.356237 	 2.461306 
H 	 4.173382 	 6.125697 	 -7.227150 
H 	 3.851599 	 7.275152 	 6.647781 
H 	 -6.579962 	 -1.387378 	 -4.654093 
H 	 7.073991 	 -2.169361 	 -4.082127 
H 	 -3.550835 	 -5.915270 	 4.716003 
H 	 -2.068070 	 -6.297379 	 5.025131 
H 	 6.338137 	 -3.194626 	 4.653274 
H 	 6.547452 	 -2.130140 	 3.505015 
H 	 5.851019 	 -5.588970 	 5.888852 
H 	 6.447975 	 -4.428874 	 6.733123 
H 	 4.994719 	 4.266767 	 6.178339 
H 	 4.481835 	 3.587803 	 7.483740 
H 	 1.944292 	 0.293975 	 -1.211857 
H 	 2.545945 	 -1.029608 	 -1.699971 
H 	 5.878082 	 2.996838 	 -2.782880 
H 	 4.965579 	 2.253657 	 -1.693024 
H 	 -5.245371 	 -2.129368 	 4.487328 
H 	 -6.543079 	 -1.690143 	 5.027636 
H 	 1.355757 	 1.137198 	 5.833301 
H 	 1.769238 	 1.136821 	 4.318968 
H 	 0.439519 	 -2.560091 	 5.202957 
H 	 0.633184 	 -3.807952 	 6.130632 
H 	 1.530568 	 3.949164 	 -1.544774 
H 	 2.962536 	 3.957042 	 -0.801374 
H 	 3.360287 	 -2.722930 	 -0.779762 
H 	 2.715890 	 -3.566512 	 -1.808335 
H 	 -1.998625 	 3.925691 	 -1.621449 
H 	 -3.175382 	 4.869481 	 -1.545884 
H 	 -3.207846 	 -2.304170 	 5.227419 
H 	 -2.237568 	 -3.405181 	 4.727684 
H 	 1.347260 	 7.359048 	 2.788983 
H 	 1.899337 	 -6.043142 	 3.101698 
H 	 -0.297410 	 -2.029932 	 0.736992 
H 	 0.393181 	 -0.697739 	 1.083155 
H 	 -5.585391 	 0.626912 	 -5.975254 
H 	 -4.183652 	 0.429227 	 -5.199180 
H 	 0.050851 	 5.817485 	 -6.378098 
H 	 -1.272868 	 5.452795 	 -5.608023 
H 	 5.907546 	 -5.807955 	 -3.973041 
H 	 5.672498 	 -5.437295 	 -2.505599 
H 	 0.529372 	 6.523616 	 -2.745792 
H 	 -0.482026 	 6.765562 	 -1.594091 
H 	 0.717859 	 -5.685838 	 -2.791853 
H 	 -0.573338 	 -6.040609 	 -3.430003 
H 	 7.102685 	 4.483647 	 0.348260 
H 	 6.174918 	 5.570691 	 -0.260251 
H 	 -7.119168 	 6.810325 	 4.102653 
H 	 -7.383707 	 -7.343333 	 5.474153 
H 	 -3.172700 	 0.474103 	 -0.615964 
H 	 -3.757874 	 -0.750985 	 0.337431 
H 	 3.190817 	 -5.890652 	 -0.830840 
H 	 2.980201 	 -6.664475 	 -2.252099 
H 	 1.407018 	 3.061652 	 3.144240 
H 	 2.654450 	 2.388754 	 2.510487 
H 	 -4.607335 	 4.348131 	 7.500962 
H 	 -5.618741 	 5.003056 	 -6.394049 
H 	 -0.154969 	 3.289796 	 -2.637039 
H 	 -0.184835 	 2.463076 	 -1.354321 
H 	 0.551639 	 -3.998695 	 -5.855618 
H 	 1.105659 	 -3.906073 	 -4.517314 
H 	 -2.932881 	 6.088706 	 -4.486057 
H 	 -1.612503 	 6.517469 	 -3.940569 
H 	 -5.012678 	 3.685436 	 0.559140 
H 	 -5.859674 	 2.527079 	 -0.158265 
H 	 5.318431 	 -1.363253 	 -3.597944 
H 	 5.178738 	 -2.982741 	 -3.539661 
H 	 -6.656572 	 2.394622 	 3.111439 
H 	 -6.848138 	 2.573033 	 1.615510 
H 	 -6.184152 	 -0.606893 	 1.769860 
H 	 -6.240129 	 -2.070271 	 2.364176 
H 	 -4.994752 	 3.035049 	 4.897442 
H 	 -5.841716 	 2.288489 	 5.862790 
H 	 4.175172 	 -6.900080 	 1.475309 
H 	 2.849232 	 7.368675 	 0.970877 
H 	 6.948883 	 0.337985 	 0.359529 
H 	 -6.830528 	 0.179922 	 -0.655153 
H 	 7.367173 	 7.327297 	 -4.109458 
H 	 -6.788126 	 -7.301984 	 -2.724227 
H 	 0.757148 	 -6.192553 	 -7.023430 
H 	 -0.621309 	 -5.440982 	 -6.821112 
H 	 -3.306729 	 1.144621 	 2.829101 
H 	 -3.666880 	 1.176752 	 1.334819 
H 	 -6.550738 	 -6.557841 	 -0.288691 
H 	 -5.830426 	 -5.620988 	 -1.158150 
H 	 5.531459 	 -1.552164 	 -0.858860 
H 	 4.757872 	 -1.092405 	 0.580392 
H 	 -6.326693 	 -0.146700 	 -2.965258 
H 	 7.459449 	 0.761509 	 -3.605659 
H 	 5.126061 	 3.529197 	 0.240307 
H 	 4.509523 	 2.142374 	 0.546227 
H 	 0.193927 	 2.205091 	 -7.220226 
H 	 0.950963 	 3.429379 	 6.963181 
H 	 1.869123 	 0.506036 	 -4.773180 
H 	 2.340012 	 0.942585 	 -3.340891 
H 	 1.365808 	 -7.332641 	 -4.787340 
H 	 2.441981 	 7.251133 	 -5.934827 
H 	 0.869058 	 -2.446361 	 -1.817327 
H 	 0.659543 	 -2.335682 	 -3.267035 
H 	 2.511940 	 5.940661 	 -2.393675 
H 	 3.061376 	 6.277769 	 -3.754903 
H 	 -0.126689 	 1.656463 	 0.494854 
H 	 0.988455 	 1.605679 	 1.560142 
H 	 4.970855 	 5.175856 	 2.288315 
H 	 1.208912 	 4.980065 	 5.001103 
H 	 -1.992428 	 -2.625610 	 -3.128459 
H 	 -2.752802 	 -3.919417 	 -2.790234 
H 	 -5.905244 	 -2.023202 	 -1.255778 
H 	 -6.971912 	 -2.584510 	 -2.121509 
H 	 7.212609 	 4.273165 	 -5.098421 
H 	 6.364960 	 4.596538 	 -6.353635 
H 	 2.922771 	 -3.862311 	 3.616730 
H 	 2.758136 	 -3.617462 	 2.114079 
H 	 2.121121 	 5.618859 	 6.165765 
O 	 -3.615626 	 -4.039972 	 2.120589 
O 	 -6.731194 	 7.152740 	 6.928243 
O 	 -1.988353 	 -4.858597 	 -5.860359 
O 	 -5.559796 	 -3.895920 	 0.232468 
O 	 -2.652757 	 -5.787665 	 -2.954718 
O 	 -4.648364 	 -6.388304 	 -4.923894 
O 	 -0.289491 	 6.959703 	 0.524337 
O 	 -2.686777 	 2.310013 	 -4.994882 
O 	 -0.429550 	 -6.675207 	 5.258534 
O 	 -1.352534 	 -0.221173 	 -3.980287 
O 	 6.887777 	 -3.124571 	 1.559580 
O 	 0.008219 	 3.076139 	 -4.295947 
O 	 5.583282 	 0.278185 	 -4.214290 
O 	 -4.588652 	 2.683034 	 -2.814083 
O 	 3.422197 	 -3.848784 	 5.793786 
O 	 -4.659432 	 -3.708476 	 -4.803530 
O 	 6.156314 	 -6.720574 	 -5.612972 
O 	 -2.144957 	 5.309998 	 6.099958 
O 	 0.683708 	 4.516604 	 3.287037 
O 	 3.922845 	 3.615863 	 4.561616 
O 	 1.302722 	 -1.788525 	 3.643760 
O 	 5.175064 	 0.920451 	 4.567695 
O 	 -4.358006 	 -6.944627 	 1.767491 
O 	 -1.997327 	 -2.784979 	 0.101429 
O 	 5.088786 	 6.768524 	 -1.275970 
O 	 4.141974 	 -3.182813 	 -5.363892 
O 	 1.383476 	 -0.682619 	 -5.992714 
O 	 4.014124 	 -1.491780 	 2.948037 
O 	 -3.621455 	 -0.109918 	 6.631766 
O 	 -4.538570 	 4.998238 	 4.484558 
O 	 7.194788 	 -4.371086 	 -6.471068 
O 	 -4.241695 	 5.482603 	 -3.740276 
O 	 -5.451007 	 -5.110312 	 4.292607 
O 	 -3.309777 	 2.779905 	 7.175432 
O 	 -3.225521 	 7.079264 	 -0.775926 
O 	 -7.195011 	 -7.225006 	 1.334362 
O 	 -2.203928 	 6.424574 	 2.972294 
O 	 4.295127 	 -7.165905 	 5.161367 
O 	 4.140441 	 4.733630 	 -4.399331 
O 	 -6.751717 	 2.072377 	 -6.931616 
O 	 2.997377 	 -0.940718 	 6.660057 
O 	 7.310240 	 4.285242 	 -2.902885 
O 	 -1.343726 	 0.659300 	 -1.397324 
O 	 -5.133647 	 -4.140557 	 7.139711 
O 	 3.712972 	 2.507419 	 -6.217608 
O 	 5.402254 	 -5.689625 	 2.629598 
O 	 -1.880183 	 -2.119699 	 7.509115 
O 	 -0.881544 	 0.630849 	 -7.049145 
O 	 2.047584 	 5.792409 	 1.629958 
O 	 -1.184483 	 3.151443 	 1.420653 
O 	 -0.137381 	 -5.297673 	 -0.096155 
O 	 5.814750 	 -0.023403 	 7.361927 
O 	 -6.880659 	 5.320117 	 2.979436 
O 	 5.319796 	 0.882201 	 1.697523 
O 	 3.877565 	 7.070183 	 -7.241062 
O 	 -7.164858 	 -2.105699 	 -4.793435 
O 	 -3.028784 	 -6.426790 	 5.302552 
O 	 6.306837 	 -2.232137 	 4.456495 
O 	 6.101524 	 -4.663309 	 5.857613 
O 	 4.939378 	 4.403620 	 7.136912 
O 	 2.653651 	 -0.069736 	 -1.778459 
O 	 5.202350 	 2.305633 	 -2.628426 
O 	 -5.597532 	 -1.801515 	 5.327193 
O 	 1.538905 	 0.565632 	 5.092462 
O 	 -0.052556 	 -3.220050 	 5.696920 
O 	 2.323523 	 4.517986 	 -1.306828 
O 	 2.487432 	 -3.124775 	 -0.990829 
O 	 -2.890435 	 3.970316 	 -1.223555 
O 	 -2.864779 	 -2.732078 	 4.385323 
O 	 1.536881 	 -6.872025 	 3.494251 
O 	 0.578831 	 -1.675993 	 1.083112 
O 	 -4.818552 	 -0.009615 	 -5.863650 
O 	 -0.614772 	 5.091796 	 -6.322018 
O 	 6.001563 	 -5.035871 	 -3.357964 
O 	 -0.375079 	 6.840246 	 -2.590727 
O 	 0.137428 	 -5.355333 	 -3.505801 
O 	 6.240428 	 4.877110 	 0.455724 
O 	 7.291371 	 -7.288950 	 4.471473 
O 	 -3.913225 	 0.141627 	 -0.115466 
O 	 3.138863 	 -5.755986 	 -1.834486 
O 	 1.765268 	 2.176031 	 2.876778 
O 	 -5.061966 	 5.193057 	 -7.155206 
O 	 -0.163596 	 3.416611 	 -1.613808 
O 	 0.883674 	 -3.305836 	 -5.258495 
O 	 -2.098625 	 6.578632 	 -4.748934 
O 	 -5.886404 	 3.486138 	 0.071381 
O 	 5.592962 	 -2.208027 	 -3.162081 
O 	 -7.366640 	 2.509877 	 2.445295 
O 	 -5.772271 	 -1.201524 	 2.459686 
O 	 -5.687334 	 2.351802 	 4.927141 
O 	 3.526877 	 -6.851357 	 0.735987 
O 	 -6.996721 	 0.529955 	 0.243813 
O 	 -6.795318 	 7.059506 	 -3.523483 
O 	 0.237831 	 -5.351101 	 -7.172315 
O 	 -3.429821 	 1.820338 	 2.126856 
O 	 -6.190696 	 -6.512894 	 -1.229340 
O 	 5.121775 	 -1.836935 	 0.004257 
O 	 -6.527340 	 0.754086 	 -3.248834 
O 	 4.438503 	 2.880020 	 -0.079992 
O 	 1.038912 	 2.517251 	 7.259304 
O 	 2.096531 	 1.309180 	 -4.204460 
O 	 1.451634 	 7.362410 	 -5.736523 
O 	 0.219643 	 -2.198673 	 -2.446112 
O 	 2.516939 	 6.686429 	 -3.055333 
O 	 0.551546 	 1.049914 	 0.821304 
O 	 4.409924 	 5.654054 	 2.936682 
O 	 -2.883422 	 -2.930405 	 -2.842223 
O 	 -6.531752 	 -1.746530 	 -1.940439 
O 	 7.289960 	 4.523106 	 -6.066778 
O 	 2.924084 	 -4.341772 	 2.765815 
O 	 1.765883 	 4.789466 	 5.827390 
K 	 -3.437960 	 -7.328812 	 -7.232549 
