333
conformation = 7
H 	 -4.073147 	 -4.905405 	 2.311773 
H 	 -3.374211 	 -3.562786 	 2.954893 
H 	 -7.405547 	 -7.500102 	 -7.269831 
H 	 -6.498287 	 6.248018 	 7.122909 
H 	 -1.655897 	 -4.671828 	 -4.999604 
H 	 -1.967983 	 -3.974718 	 -6.287312 
H 	 -6.433347 	 -3.899701 	 0.751632 
H 	 -4.887414 	 -3.778104 	 0.935211 
H 	 -2.874765 	 -6.363212 	 -2.193544 
H 	 -3.358750 	 -5.961241 	 -3.645177 
H 	 -5.352599 	 -6.719837 	 -4.273734 
H 	 -4.848282 	 -5.415474 	 -4.877798 
H 	 0.574086 	 6.450100 	 0.665412 
H 	 -0.028853 	 -7.008931 	 0.402780 
H 	 -3.334732 	 2.509846 	 -4.291225 
H 	 -1.803893 	 2.657278 	 -4.766376 
H 	 0.344071 	 -6.656450 	 4.613460 
H 	 -0.095661 	 -5.990895 	 5.879172 
H 	 -1.799940 	 0.395715 	 -4.608861 
H 	 -0.500273 	 -0.484646 	 -4.340923 
H 	 6.449543 	 -3.904296 	 1.966867 
H 	 6.125517 	 -2.756810 	 1.033593 
H 	 0.661890 	 2.296305 	 -4.316304 
H 	 0.113935 	 3.668693 	 -5.057555 
H 	 5.428436 	 0.451772 	 -5.142001 
H 	 5.203463 	 1.025722 	 -3.631069 
H 	 -5.173466 	 1.927069 	 -2.873399 
H 	 -4.163133 	 2.904693 	 -1.953116 
H 	 4.347718 	 -3.940486 	 6.035905 
H 	 3.094166 	 -2.962572 	 6.155879 
H 	 -5.588693 	 -3.356637 	 -4.705296 
H 	 -4.234329 	 -3.360771 	 -3.961488 
H 	 6.453005 	 -5.846260 	 -6.039155 
H 	 5.441388 	 -7.127829 	 -6.064499 
H 	 -1.428367 	 5.217027 	 6.787577 
H 	 -2.767607 	 4.560872 	 6.211865 
H 	 1.229986 	 5.089858 	 2.641497 
H 	 -0.164939 	 4.380047 	 2.790749 
H 	 3.102022 	 3.965878 	 4.963158 
H 	 4.188699 	 4.399475 	 3.924711 
H 	 0.802879 	 -1.656894 	 2.805335 
H 	 1.128705 	 -1.032219 	 4.244180 
H 	 4.484024 	 1.670309 	 4.597103 
H 	 4.635722 	 0.108012 	 4.335662 
H 	 -3.877999 	 -7.333391 	 2.520763 
H 	 -5.361566 	 -6.925145 	 1.874150 
H 	 -2.412338 	 -2.973706 	 -0.786634 
H 	 -2.586299 	 -3.266682 	 0.737150 
H 	 4.882207 	 7.072598 	 -2.170095 
H 	 4.351571 	 7.168726 	 -0.701793 
H 	 4.344108 	 -4.118751 	 -5.222204 
H 	 3.182985 	 -3.237839 	 -5.515037 
H 	 1.963707 	 -0.867165 	 -6.737774 
H 	 1.133901 	 -1.589606 	 -5.759729 
H 	 4.467597 	 -2.079722 	 3.592420 
H 	 3.078216 	 -1.690356 	 3.163588 
H 	 -4.180320 	 -0.425959 	 5.911857 
H 	 -4.273491 	 -0.016362 	 7.417766 
H 	 -4.036747 	 5.180231 	 3.692087 
H 	 -4.311221 	 5.676315 	 5.145265 
H 	 7.250325 	 -3.461827 	 -5.990133 
H 	 -6.803078 	 -4.602701 	 -6.742876 
H 	 -4.385937 	 4.527256 	 -3.880645 
H 	 -5.109539 	 5.940073 	 -3.841992 
H 	 -5.810121 	 -4.907882 	 5.176979 
H 	 -6.105251 	 -5.838136 	 4.085460 
H 	 -3.276600 	 1.867023 	 6.818132 
H 	 -2.954481 	 2.677492 	 -6.854481 
H 	 -2.551366 	 7.063360 	 -0.110885 
H 	 -4.003938 	 -7.478040 	 -0.252275 
H 	 -7.362459 	 6.782321 	 1.567816 
H 	 6.941083 	 -6.786267 	 1.735548 
H 	 -1.810730 	 6.591671 	 3.891465 
H 	 -1.453037 	 6.678107 	 2.377889 
H 	 3.493185 	 -7.169705 	 4.593061 
H 	 4.981835 	 7.209285 	 4.705490 
H 	 3.715316 	 4.428211 	 -3.605884 
H 	 3.806879 	 4.053333 	 -5.067239 
H 	 -6.955890 	 3.040328 	 -6.797559 
H 	 7.193046 	 1.745365 	 -6.895009 
H 	 2.531482 	 -0.435935 	 5.898723 
H 	 3.809575 	 -0.516174 	 6.972562 
H 	 7.436368 	 5.259951 	 -2.792769 
H 	 -6.789512 	 3.886376 	 -2.602912 
H 	 -1.530842 	 0.749820 	 -2.321829 
H 	 -0.912843 	 -0.188286 	 -1.267599 
H 	 -4.688867 	 -3.728640 	 -6.967641 
H 	 -5.208153 	 -3.362192 	 6.523501 
H 	 3.648124 	 1.898429 	 -5.442469 
H 	 2.777990 	 2.381552 	 -6.570982 
H 	 5.655657 	 -5.916413 	 3.509520 
H 	 4.546622 	 -5.159101 	 2.804299 
H 	 -2.716722 	 -1.649839 	 7.439110 
H 	 -1.412915 	 -2.280263 	 6.703821 
H 	 -0.212434 	 0.123158 	 -6.556759 
H 	 -1.436038 	 0.023800 	 7.342267 
H 	 3.518977 	 5.708175 	 2.392825 
H 	 2.224911 	 5.216837 	 0.870190 
H 	 -1.745519 	 2.578309 	 1.964046 
H 	 -1.907094 	 3.658653 	 1.053408 
H 	 0.590630 	 -4.665274 	 -0.217999 
H 	 -0.868924 	 -4.778289 	 0.312438 
H 	 6.386138 	 -0.710291 	 6.854625 
H 	 5.682478 	 0.633269 	 6.633347 
H 	 -7.290204 	 4.459287 	 2.893345 
H 	 -5.992498 	 5.210317 	 3.464905 
H 	 5.986016 	 1.354848 	 2.187780 
H 	 4.932961 	 0.360926 	 2.447405 
H 	 4.152999 	 6.128301 	 -7.238171 
H 	 3.865546 	 7.291526 	 6.690407 
H 	 -6.574743 	 -1.386940 	 -4.643117 
H 	 7.080450 	 -2.167659 	 -4.087028 
H 	 -3.547468 	 -5.906522 	 4.727045 
H 	 -2.061643 	 -6.320345 	 5.039978 
H 	 6.315173 	 -3.190800 	 4.631033 
H 	 6.545706 	 -2.122572 	 3.521911 
H 	 5.827524 	 -5.577415 	 5.876911 
H 	 6.434695 	 -4.429505 	 6.732599 
H 	 4.994122 	 4.265174 	 6.168816 
H 	 4.483262 	 3.609525 	 7.476263 
H 	 1.981813 	 0.324552 	 -1.204308 
H 	 2.559384 	 -1.023562 	 -1.703142 
H 	 5.892974 	 3.016772 	 -2.765049 
H 	 4.963834 	 2.252493 	 -1.695195 
H 	 -5.235182 	 -2.140284 	 4.496041 
H 	 -6.551822 	 -1.709495 	 5.083859 
H 	 1.349864 	 1.153751 	 5.837426 
H 	 1.778399 	 1.152098 	 4.322688 
H 	 0.442850 	 -2.570394 	 5.205452 
H 	 0.633606 	 -3.811280 	 6.158117 
H 	 1.548227 	 3.946991 	 -1.546447 
H 	 2.965088 	 3.953159 	 -0.832776 
H 	 3.354782 	 -2.717308 	 -0.775537 
H 	 2.707867 	 -3.578365 	 -1.813556 
H 	 -1.997755 	 3.925919 	 -1.612520 
H 	 -3.189504 	 4.873989 	 -1.538732 
H 	 -3.205470 	 -2.298903 	 5.220082 
H 	 -2.250093 	 -3.414211 	 4.733846 
H 	 1.331048 	 7.361216 	 2.811301 
H 	 1.895429 	 -6.061807 	 3.106567 
H 	 -0.296966 	 -2.053743 	 0.732670 
H 	 0.397059 	 -0.683950 	 1.085084 
H 	 -5.583719 	 0.645380 	 -5.959860 
H 	 -4.203902 	 0.433610 	 -5.214765 
H 	 0.032856 	 5.813643 	 -6.368045 
H 	 -1.280973 	 5.450904 	 -5.595594 
H 	 5.911932 	 -5.805324 	 -3.955074 
H 	 5.680707 	 -5.411302 	 -2.512007 
H 	 0.523767 	 6.545645 	 -2.719788 
H 	 -0.494384 	 6.783147 	 -1.592273 
H 	 0.696875 	 -5.706890 	 -2.791240 
H 	 -0.572055 	 -6.055869 	 -3.420725 
H 	 7.117464 	 4.468943 	 0.343748 
H 	 6.170927 	 5.561682 	 -0.250190 
H 	 -7.157477 	 6.790206 	 4.098773 
H 	 -7.393483 	 -7.334804 	 5.467870 
H 	 -3.187800 	 0.449868 	 -0.636555 
H 	 -3.762050 	 -0.730149 	 0.351465 
H 	 3.169963 	 -5.894245 	 -0.831600 
H 	 3.003002 	 -6.666429 	 -2.241204 
H 	 1.406572 	 3.076501 	 3.153091 
H 	 2.658102 	 2.388480 	 2.535873 
H 	 -4.599071 	 4.360458 	 7.480637 
H 	 -5.605137 	 5.014203 	 -6.393630 
H 	 -0.181405 	 3.272746 	 -2.646627 
H 	 -0.205202 	 2.455797 	 -1.346483 
H 	 0.568434 	 -4.016546 	 -5.827317 
H 	 1.099343 	 -3.878631 	 -4.498080 
H 	 -2.921963 	 6.062263 	 -4.512822 
H 	 -1.611791 	 6.489338 	 -3.931161 
H 	 -5.001883 	 3.688722 	 0.547537 
H 	 -5.852920 	 2.536382 	 -0.141716 
H 	 5.312461 	 -1.335649 	 -3.589319 
H 	 5.178527 	 -2.973436 	 -3.529670 
H 	 -6.639258 	 2.417796 	 3.109911 
H 	 -6.817350 	 2.585607 	 1.647141 
H 	 -6.202133 	 -0.608535 	 1.784321 
H 	 -6.227645 	 -2.072204 	 2.389559 
H 	 -5.010643 	 3.044512 	 4.909239 
H 	 -5.854587 	 2.318668 	 5.877881 
H 	 4.179097 	 -6.886142 	 1.450094 
H 	 2.840661 	 7.380779 	 1.018164 
H 	 6.957246 	 0.336595 	 0.370138 
H 	 -6.821493 	 0.204897 	 -0.657869 
H 	 7.361246 	 7.327713 	 -4.099996 
H 	 -6.780615 	 -7.299259 	 -2.731588 
H 	 0.749694 	 -6.185080 	 -7.033389 
H 	 -0.654174 	 -5.441354 	 -6.822241 
H 	 -3.311678 	 1.120301 	 2.825213 
H 	 -3.692149 	 1.199408 	 1.340880 
H 	 -6.544265 	 -6.540224 	 -0.288497 
H 	 -5.868005 	 -5.608334 	 -1.152900 
H 	 5.538053 	 -1.538179 	 -0.856031 
H 	 4.744264 	 -1.088124 	 0.566897 
H 	 -6.321003 	 -0.151480 	 -2.944700 
H 	 7.461221 	 0.758495 	 -3.598016 
H 	 5.120469 	 3.525977 	 0.232778 
H 	 4.501431 	 2.128956 	 0.553186 
H 	 0.200179 	 2.198098 	 -7.224289 
H 	 0.950090 	 3.458122 	 6.953335 
H 	 1.865661 	 0.513203 	 -4.776469 
H 	 2.351946 	 0.938793 	 -3.328273 
H 	 1.383409 	 -7.352359 	 -4.773656 
H 	 2.439991 	 7.260990 	 -5.914033 
H 	 0.881101 	 -2.459000 	 -1.801342 
H 	 0.661495 	 -2.344495 	 -3.262906 
H 	 2.517421 	 5.958015 	 -2.389930 
H 	 3.036414 	 6.275750 	 -3.765443 
H 	 -0.130692 	 1.674251 	 0.472418 
H 	 1.001259 	 1.605253 	 1.539420 
H 	 4.997702 	 5.216479 	 2.284664 
H 	 1.191497 	 4.983856 	 5.009683 
H 	 -2.002557 	 -2.620359 	 -3.117845 
H 	 -2.764426 	 -3.926502 	 -2.793560 
H 	 -5.906435 	 -2.031676 	 -1.245669 
H 	 -6.992686 	 -2.564150 	 -2.133506 
H 	 7.218195 	 4.275132 	 -5.079887 
H 	 6.336425 	 4.597121 	 -6.375132 
H 	 2.929731 	 -3.810259 	 3.619245 
H 	 2.763727 	 -3.610535 	 2.128015 
H 	 2.116532 	 5.602600 	 6.183756 
O 	 -3.620600 	 -4.033777 	 2.123507 
O 	 -6.734515 	 7.156594 	 6.931195 
O 	 -1.985073 	 -4.857516 	 -5.868146 
O 	 -5.567334 	 -3.899267 	 0.232227 
O 	 -2.657916 	 -5.781818 	 -2.950599 
O 	 -4.651446 	 -6.385409 	 -4.924045 
O 	 -0.295812 	 6.952563 	 0.528708 
O 	 -2.687084 	 2.308183 	 -4.991913 
O 	 -0.434920 	 -6.675776 	 5.261278 
O 	 -1.359420 	 -0.215338 	 -3.980869 
O 	 6.880800 	 -3.130082 	 1.558676 
O 	 0.005945 	 3.075060 	 -4.294350 
O 	 5.583243 	 0.279108 	 -4.212076 
O 	 -4.592105 	 2.691076 	 -2.812001 
O 	 3.415049 	 -3.844433 	 5.789808 
O 	 -4.661837 	 -3.707017 	 -4.798997 
O 	 6.152991 	 -6.720235 	 -5.605305 
O 	 -2.146747 	 5.315659 	 6.099122 
O 	 0.684143 	 4.514940 	 3.297954 
O 	 3.927614 	 3.619792 	 4.566979 
O 	 1.290830 	 -1.793976 	 3.654843 
O 	 5.171472 	 0.923935 	 4.574989 
O 	 -4.358256 	 -6.945201 	 1.771217 
O 	 -1.998753 	 -2.784971 	 0.107962 
O 	 5.089449 	 6.768064 	 -1.281877 
O 	 4.135154 	 -3.184479 	 -5.359779 
O 	 1.379054 	 -0.676863 	 -5.990738 
O 	 4.009906 	 -1.500336 	 2.951082 
O 	 -3.627152 	 -0.117474 	 6.636543 
O 	 -4.547764 	 5.001430 	 4.477923 
O 	 7.195456 	 -4.370727 	 -6.465144 
O 	 -4.242569 	 5.487168 	 -3.734922 
O 	 -5.462972 	 -5.113895 	 4.295160 
O 	 -3.314034 	 2.774789 	 7.175743 
O 	 -3.224990 	 7.085545 	 -0.776822 
O 	 -7.198314 	 -7.221903 	 1.339749 
O 	 -2.205668 	 6.428962 	 2.972262 
O 	 4.299002 	 -7.160181 	 5.161124 
O 	 4.135606 	 4.735503 	 -4.394906 
O 	 -6.761555 	 2.066395 	 -6.926944 
O 	 3.001894 	 -0.942505 	 6.665430 
O 	 7.308369 	 4.276701 	 -2.898311 
O 	 -1.347274 	 0.652037 	 -1.391548 
O 	 -5.135524 	 -4.135285 	 7.145975 
O 	 3.707404 	 2.512318 	 -6.219853 
O 	 5.399819 	 -5.694653 	 2.630878 
O 	 -1.883095 	 -2.113413 	 7.512980 
O 	 -0.879619 	 0.633369 	 -7.045068 
O 	 2.039289 	 5.790538 	 1.635689 
O 	 -1.186934 	 3.150635 	 1.427942 
O 	 -0.145349 	 -5.293245 	 -0.096360 
O 	 5.815812 	 -0.021355 	 7.361517 
O 	 -6.883273 	 5.316762 	 2.982333 
O 	 5.322147 	 0.884402 	 1.703517 
O 	 3.877947 	 7.067179 	 -7.239646 
O 	 -7.166349 	 -2.109974 	 -4.790076 
O 	 -3.034597 	 -6.420743 	 5.310893 
O 	 6.294182 	 -2.233669 	 4.458966 
O 	 6.099541 	 -4.659235 	 5.858131 
O 	 4.939877 	 4.405770 	 7.142150 
O 	 2.649021 	 -0.067708 	 -1.773486 
O 	 5.197316 	 2.304123 	 -2.626499 
O 	 -5.602594 	 -1.800245 	 5.333140 
O 	 1.533199 	 0.567494 	 5.097216 
O 	 -0.053013 	 -3.224283 	 5.709118 
O 	 2.319867 	 4.514680 	 -1.302229 
O 	 2.480295 	 -3.125059 	 -0.988839 
O 	 -2.896639 	 3.977710 	 -1.220969 
O 	 -2.867518 	 -2.732622 	 4.389861 
O 	 1.536895 	 -6.872993 	 3.494878 
O 	 0.578862 	 -1.675691 	 1.083625 
O 	 -4.822305 	 -0.010611 	 -5.863806 
O 	 -0.615481 	 5.090839 	 -6.315706 
O 	 5.992630 	 -5.033875 	 -3.354749 
O 	 -0.378263 	 6.844414 	 -2.590182 
O 	 0.130706 	 -5.353865 	 -3.503073 
O 	 6.234643 	 4.874357 	 0.452508 
O 	 7.291045 	 -7.284658 	 4.483093 
O 	 -3.923185 	 0.141869 	 -0.108035 
O 	 3.132581 	 -5.753253 	 -1.833514 
O 	 1.759196 	 2.178725 	 2.874738 
O 	 -5.068247 	 5.188298 	 -7.159785 
O 	 -0.169720 	 3.417922 	 -1.615626 
O 	 0.875425 	 -3.308910 	 -5.254954 
O 	 -2.100126 	 6.583719 	 -4.745135 
O 	 -5.887172 	 3.490902 	 0.076722 
O 	 5.592249 	 -2.205563 	 -3.157516 
O 	 -7.364845 	 2.510382 	 2.449322 
O 	 -5.781841 	 -1.191269 	 2.460476 
O 	 -5.695792 	 2.349341 	 4.926523 
O 	 3.525338 	 -6.853128 	 0.739005 
O 	 -7.009531 	 0.541712 	 0.253330 
O 	 -6.794383 	 7.064200 	 -3.516814 
O 	 0.243366 	 -5.356626 	 -7.177363 
O 	 -3.429030 	 1.822914 	 2.132038 
O 	 -6.197428 	 -6.511120 	 -1.227315 
O 	 5.114007 	 -1.835761 	 0.004083 
O 	 -6.529507 	 0.760899 	 -3.246032 
O 	 4.439095 	 2.876833 	 -0.076739 
O 	 1.027734 	 2.515390 	 7.262592 
O 	 2.096861 	 1.309370 	 -4.198406 
O 	 1.445180 	 7.365602 	 -5.725795 
O 	 0.218780 	 -2.203258 	 -2.435561 
O 	 2.509596 	 6.683260 	 -3.051111 
O 	 0.550446 	 1.048791 	 0.828250 
O 	 4.407857 	 5.656067 	 2.929970 
O 	 -2.885363 	 -2.929164 	 -2.843436 
O 	 -6.535498 	 -1.752278 	 -1.935792 
O 	 7.284365 	 4.522706 	 -6.068309 
O 	 2.924084 	 -4.336146 	 2.764387 
O 	 1.756879 	 4.792261 	 5.835874 
K 	 -3.443295 	 -7.330513 	 -7.231777 
