333
conformation = 44
H 	 -2.663481 	 6.660010 	 -4.388825 
H 	 -2.762722 	 -6.953247 	 -3.626095 
H 	 -6.230791 	 3.666335 	 1.096626 
H 	 -5.009917 	 3.193379 	 0.203334 
H 	 -0.916963 	 6.655639 	 3.090260 
H 	 -1.136890 	 -7.163032 	 1.999145 
H 	 -5.388675 	 -7.042696 	 -5.955609 
H 	 -3.865435 	 7.561873 	 -6.010420 
H 	 -1.766546 	 5.334007 	 6.126079 
H 	 -2.270701 	 5.369098 	 4.665791 
H 	 -4.467687 	 4.822597 	 3.628422 
H 	 -3.937627 	 6.198034 	 3.379242 
H 	 1.372579 	 3.136181 	 -5.578116 
H 	 0.819395 	 4.432956 	 -6.111402 
H 	 -2.305631 	 -0.996234 	 4.018819 
H 	 -0.723979 	 -0.800457 	 3.478254 
H 	 1.165196 	 5.014005 	 -2.098235 
H 	 0.778476 	 5.575252 	 -0.705877 
H 	 -0.795527 	 -2.663139 	 3.619206 
H 	 0.461291 	 -3.595177 	 3.895870 
H 	 -7.706716 	 7.532452 	 -4.821184 
H 	 7.157812 	 -6.088424 	 -5.657637 
H 	 1.823078 	 -0.811464 	 3.887970 
H 	 0.941589 	 0.472882 	 3.190708 
H 	 6.355457 	 -2.896213 	 3.052913 
H 	 6.409922 	 -2.257188 	 4.499360 
H 	 -4.222730 	 -1.126376 	 5.702949 
H 	 -2.894884 	 -0.108153 	 5.953061 
H 	 5.250296 	 7.575434 	 -1.032117 
H 	 4.295755 	 -6.167166 	 -0.668865 
H 	 -4.527429 	 -6.373345 	 3.642993 
H 	 -2.978336 	 -6.463123 	 3.865363 
H 	 -7.422163 	 5.687447 	 2.312277 
H 	 6.297019 	 4.553502 	 2.159387 
H 	 -0.358190 	 2.287506 	 -0.085878 
H 	 -1.202220 	 1.119352 	 -0.580106 
H 	 2.157663 	 1.679990 	 -4.050773 
H 	 0.800307 	 0.920776 	 -3.527641 
H 	 4.223997 	 0.622692 	 -1.714238 
H 	 5.324375 	 0.879336 	 -2.775138 
H 	 1.790526 	 -5.220926 	 -3.793308 
H 	 1.947744 	 -4.317622 	 -2.488252 
H 	 5.619658 	 -1.585612 	 -2.061204 
H 	 5.566184 	 -3.083124 	 -2.201838 
H 	 -2.913175 	 3.953762 	 -4.237492 
H 	 -4.267961 	 4.567462 	 -4.838254 
H 	 -1.511185 	 -6.284603 	 -7.251640 
H 	 -1.529811 	 -6.545776 	 -5.713461 
H 	 5.622342 	 3.289185 	 5.953563 
H 	 5.499405 	 3.808820 	 7.336420 
H 	 4.958577 	 7.440638 	 3.293015 
H 	 4.150679 	 -6.436645 	 2.435006 
H 	 3.085927 	 -3.983326 	 1.499004 
H 	 2.293033 	 -4.893844 	 2.354221 
H 	 5.459019 	 -5.207287 	 -2.921507 
H 	 3.983606 	 -4.876356 	 -3.387787 
H 	 -3.472128 	 -3.683565 	 -0.638382 
H 	 -3.092001 	 -3.646585 	 0.844180 
H 	 -2.812607 	 1.601071 	 -2.946458 
H 	 -3.468751 	 2.375412 	 -1.725244 
H 	 -6.582686 	 -6.902221 	 2.374106 
H 	 -5.673788 	 7.355197 	 1.357180 
H 	 -3.516922 	 1.266762 	 4.738863 
H 	 -3.990515 	 2.746740 	 4.786589 
H 	 -4.633596 	 6.352840 	 -1.411912 
H 	 -5.291187 	 5.577366 	 -2.536734 
H 	 -2.883840 	 -1.313674 	 -0.056951 
H 	 -2.125001 	 -0.927303 	 1.366831 
H 	 -1.244059 	 3.576780 	 -7.096037 
H 	 -2.583352 	 4.088691 	 -6.684302 
H 	 -6.287491 	 3.488308 	 -4.823859 
H 	 -7.047442 	 4.897496 	 -5.073791 
H 	 -0.650729 	 2.858768 	 -3.013937 
H 	 -0.580785 	 3.452795 	 -4.425508 
H 	 4.536903 	 4.707756 	 -1.981338 
H 	 5.638937 	 3.710904 	 -2.161823 
H 	 5.195175 	 0.703204 	 4.522731 
H 	 4.834138 	 0.916924 	 3.098359 
H 	 -6.101569 	 -0.586474 	 1.758264 
H 	 -6.756339 	 -1.821989 	 1.152170 
H 	 3.896276 	 -3.597390 	 -0.484685 
H 	 5.090832 	 -4.217196 	 0.402478 
H 	 -6.332764 	 1.736076 	 5.347201 
H 	 -5.666505 	 0.338298 	 5.620932 
H 	 -0.317076 	 -3.052453 	 5.838222 
H 	 0.026621 	 -3.625155 	 -7.558984 
H 	 -3.639550 	 -7.089637 	 1.393311 
H 	 -4.165004 	 -6.544168 	 -0.005869 
H 	 4.301197 	 -1.072443 	 2.768798 
H 	 3.654462 	 -0.769038 	 1.473513 
H 	 6.647085 	 5.453928 	 -3.215923 
H 	 5.592061 	 6.364334 	 -4.013229 
H 	 -1.564470 	 -4.841636 	 0.403694 
H 	 -0.170261 	 -5.707853 	 0.354000 
H 	 0.862836 	 -3.377078 	 1.258174 
H 	 -0.577378 	 -3.073180 	 0.873178 
H 	 4.562781 	 2.313508 	 -4.428905 
H 	 3.019117 	 2.085862 	 -5.920511 
H 	 -1.020742 	 -0.657530 	 -5.036971 
H 	 -0.301281 	 0.496806 	 -5.907128 
H 	 1.549955 	 6.963390 	 -6.924308 
H 	 0.014557 	 6.993967 	 -6.971330 
H 	 -7.591587 	 -4.153280 	 0.635865 
H 	 6.764689 	 -2.921047 	 -0.285496 
H 	 -6.393978 	 1.008816 	 -3.942115 
H 	 -5.247547 	 1.706736 	 -3.092727 
H 	 7.127439 	 -1.956843 	 -4.419624 
H 	 5.977435 	 -3.077652 	 -4.380758 
H 	 5.335569 	 2.774953 	 0.850469 
H 	 5.130370 	 4.204717 	 0.287655 
H 	 -5.764156 	 -4.613699 	 3.266023 
H 	 -6.896777 	 -5.485196 	 3.980205 
H 	 -2.616024 	 5.878963 	 -1.905462 
H 	 -1.233470 	 5.076501 	 -1.660439 
H 	 -7.658553 	 -6.517780 	 -1.928394 
H 	 -7.247416 	 -5.510490 	 -3.041445 
H 	 6.806036 	 6.037322 	 -1.050921 
H 	 -7.522541 	 7.020619 	 0.102179 
H 	 5.790938 	 0.815639 	 -0.431441 
H 	 5.574365 	 0.509273 	 1.079410 
H 	 3.410846 	 -2.807332 	 -7.558991 
H 	 3.246681 	 -4.176151 	 6.424673 
H 	 6.891093 	 -0.349646 	 5.567724 
H 	 5.872525 	 -0.996287 	 6.559201 
H 	 -4.554854 	 -5.170516 	 -2.207806 
H 	 -5.601899 	 -5.236345 	 -1.020656 
H 	 1.957704 	 -2.097091 	 -0.867735 
H 	 2.421178 	 -2.116915 	 -2.376908 
H 	 1.546192 	 -6.668115 	 -1.574725 
H 	 1.487497 	 -7.163189 	 -0.140379 
H 	 2.494725 	 0.718385 	 6.964915 
H 	 3.970983 	 0.341686 	 7.056197 
H 	 4.163984 	 -6.058788 	 -7.193057 
H 	 3.742196 	 7.494083 	 6.916227 
H 	 -0.993108 	 0.658809 	 6.944933 
H 	 -2.118116 	 1.803689 	 6.915345 
H 	 -2.150071 	 -5.530674 	 -1.489262 
H 	 -1.093628 	 -6.590213 	 -1.831948 
H 	 2.696282 	 3.892424 	 -3.814798 
H 	 2.807482 	 5.499914 	 -3.743046 
H 	 0.821883 	 -5.448379 	 -5.901691 
H 	 1.562376 	 -4.019315 	 -5.854860 
H 	 -4.475990 	 -2.551888 	 2.257971 
H 	 -3.154087 	 -2.955822 	 2.817334 
H 	 1.346549 	 2.202441 	 2.041973 
H 	 -0.158264 	 2.315114 	 2.517057 
H 	 6.883948 	 5.761861 	 4.380630 
H 	 6.460228 	 6.358585 	 5.752081 
H 	 1.600031 	 3.510453 	 5.592344 
H 	 0.439093 	 3.702542 	 6.578962 
H 	 1.557424 	 5.949199 	 5.562192 
H 	 0.231355 	 5.840758 	 5.033764 
H 	 -6.729529 	 1.271434 	 -6.494765 
H 	 6.931981 	 1.965357 	 -7.127714 
H 	 -6.860819 	 3.649696 	 -2.651495 
H 	 -6.305662 	 4.031255 	 -1.257877 
H 	 -2.279731 	 -3.251298 	 -7.345343 
H 	 -3.023367 	 -3.891751 	 -6.048813 
H 	 4.011538 	 5.422085 	 7.192492 
H 	 3.915275 	 5.149921 	 5.762384 
H 	 2.324090 	 -0.233199 	 -3.617997 
H 	 3.718081 	 -0.834451 	 -3.588974 
H 	 -3.519526 	 0.950565 	 0.606839 
H 	 -4.658837 	 1.523211 	 1.633183 
H 	 0.846934 	 0.000834 	 5.466218 
H 	 0.454823 	 -0.850711 	 6.663563 
H 	 1.910351 	 7.525870 	 2.235382 
H 	 1.454135 	 -7.307861 	 3.703037 
H 	 -1.887640 	 3.098133 	 3.941316 
H 	 -0.410024 	 3.529762 	 4.270052 
H 	 -3.921543 	 0.493871 	 -6.768316 
H 	 -4.829827 	 -0.707517 	 -6.759975 
H 	 6.469486 	 -4.504416 	 4.817733 
H 	 6.127046 	 -6.137186 	 4.746198 
H 	 -5.733189 	 -1.067908 	 -3.309755 
H 	 -5.389417 	 -0.603318 	 -4.601043 
H 	 -5.318092 	 -3.694757 	 -4.877965 
H 	 -5.067869 	 -5.215907 	 -4.579040 
H 	 -4.437187 	 -0.099052 	 -1.770071 
H 	 -5.424602 	 -0.924292 	 -1.016881 
H 	 5.321373 	 5.027987 	 -5.449361 
H 	 4.195344 	 3.863943 	 -5.423368 
H 	 -7.143217 	 -2.602560 	 -6.167414 
H 	 -5.913344 	 -3.137895 	 -7.017305 
H 	 -6.368168 	 4.146615 	 4.186320 
H 	 -5.658059 	 4.384847 	 5.588711 
H 	 1.738032 	 5.452322 	 1.546335 
H 	 0.590340 	 6.587271 	 1.288479 
H 	 -2.652395 	 -2.241244 	 -3.908498 
H 	 -2.693081 	 -1.828483 	 -5.313910 
H 	 -5.691136 	 4.763092 	 -7.139778 
H 	 -5.251789 	 6.072731 	 7.324242 
H 	 6.285151 	 -5.062778 	 7.220972 
H 	 5.766771 	 -4.252174 	 -6.441611 
H 	 -5.427711 	 -3.296625 	 5.569304 
H 	 -6.394051 	 -2.499210 	 4.619936 
H 	 6.085675 	 0.193033 	 -6.626653 
H 	 5.738049 	 -1.229326 	 -6.060592 
H 	 1.071724 	 -1.328666 	 0.708862 
H 	 1.853191 	 0.043370 	 0.204147 
H 	 2.925492 	 -2.726812 	 3.455472 
H 	 3.329008 	 -2.471368 	 4.984248 
H 	 2.542532 	 4.324426 	 3.564230 
H 	 3.280577 	 4.011137 	 2.329751 
H 	 2.071338 	 -5.966983 	 6.505475 
H 	 1.603822 	 -5.576740 	 5.081372 
H 	 3.395099 	 2.563125 	 5.907340 
H 	 3.735539 	 2.743283 	 4.428675 
H 	 0.858014 	 -1.791562 	 -5.918140 
H 	 2.070876 	 -1.996981 	 -5.098621 
H 	 6.120690 	 2.650425 	 -4.654289 
H 	 2.115518 	 1.607714 	 -1.548817 
H 	 -1.071527 	 -5.701803 	 5.258235 
H 	 -1.549628 	 -7.237878 	 5.370204 
H 	 -5.182466 	 -5.940035 	 6.944370 
H 	 -6.389929 	 -5.460870 	 5.947302 
H 	 -7.128074 	 1.195341 	 2.953600 
H 	 -7.370290 	 1.179320 	 1.389429 
H 	 3.855460 	 -7.041094 	 -3.148543 
H 	 3.840881 	 -6.785991 	 -4.567200 
H 	 2.810913 	 2.394439 	 -0.308291 
O 	 -2.641717 	 -7.277124 	 -4.554303 
O 	 -5.706756 	 3.919215 	 0.317064 
O 	 -0.871536 	 6.772913 	 2.105337 
O 	 -4.683695 	 -7.290098 	 -6.562255 
O 	 -1.763964 	 5.910859 	 5.317688 
O 	 -3.678083 	 5.232364 	 3.290738 
O 	 0.623077 	 3.461863 	 -6.107145 
O 	 -1.664258 	 -1.075368 	 3.255989 
O 	 0.516163 	 4.895216 	 -1.397175 
O 	 -0.444409 	 -3.417691 	 4.146537 
O 	 -7.109360 	 -6.633771 	 -5.116190 
O 	 0.996218 	 -0.280105 	 3.881267 
O 	 6.660368 	 -3.042885 	 3.962568 
O 	 -3.599603 	 -0.441725 	 5.314476 
O 	 4.293895 	 -7.047215 	 -1.056214 
O 	 -3.738718 	 -6.947434 	 3.470127 
O 	 7.150429 	 4.815877 	 2.679634 
O 	 -1.114198 	 2.080737 	 -0.637782 
O 	 1.693964 	 1.139864 	 -3.217618 
O 	 5.114678 	 0.316995 	 -2.037681 
O 	 2.136836 	 -5.223751 	 -2.838914 
O 	 6.142583 	 -2.383292 	 -1.945257 
O 	 -3.302779 	 4.626500 	 -4.837558 
O 	 -0.968593 	 -6.164663 	 -6.459091 
O 	 6.177033 	 3.428392 	 6.766376 
O 	 5.029691 	 -6.551177 	 2.862111 
O 	 2.366828 	 -3.924257 	 2.205237 
O 	 4.925982 	 -4.969146 	 -3.728287 
O 	 -2.684286 	 -3.590574 	 -0.039405 
O 	 -3.643958 	 1.744748 	 -2.423093 
O 	 -6.593802 	 7.233892 	 1.786483 
O 	 -3.237597 	 2.169030 	 4.520524 
O 	 -4.700551 	 6.349244 	 -2.395478 
O 	 -2.387461 	 -0.619635 	 0.421713 
O 	 -2.112978 	 3.865254 	 -7.522205 
O 	 -6.198330 	 4.408079 	 -5.307314 
O 	 -1.206362 	 3.167024 	 -3.730798 
O 	 5.447029 	 4.537143 	 -1.664693 
O 	 5.041838 	 1.479752 	 3.847902 
O 	 -5.883897 	 -1.430311 	 1.293180 
O 	 4.157996 	 -4.361852 	 0.065308 
O 	 -6.547180 	 0.785871 	 5.352649 
O 	 -0.357960 	 -2.856949 	 6.860851 
O 	 -4.093538 	 7.566359 	 0.564039 
O 	 4.556163 	 -0.743713 	 1.883905 
O 	 6.415626 	 5.829036 	 -4.140362 
O 	 -0.912769 	 -5.372399 	 0.955435 
O 	 0.202140 	 -2.644286 	 1.218462 
O 	 2.965137 	 2.457575 	 -5.018298 
O 	 -0.157999 	 -0.161765 	 -5.188628 
O 	 0.776683 	 6.379810 	 -6.837329 
O 	 6.872340 	 -3.322407 	 0.620261 
O 	 -5.951900 	 1.899839 	 -3.703499 
O 	 6.410480 	 -2.426636 	 -4.968627 
O 	 4.951366 	 3.655743 	 1.052801 
O 	 -6.068547 	 -5.551588 	 3.398861 
O 	 -2.112695 	 5.278747 	 -1.263059 
O 	 7.110868 	 -5.572081 	 -2.217402 
O 	 7.098057 	 6.974964 	 -0.864737 
O 	 6.042291 	 1.148665 	 0.487869 
O 	 3.683643 	 -3.300591 	 6.519623 
O 	 6.168996 	 -1.009533 	 5.581061 
O 	 -4.639534 	 -5.185581 	 -1.240018 
O 	 2.520157 	 -2.641468 	 -1.527448 
O 	 0.982059 	 -6.651102 	 -0.763967 
O 	 3.376195 	 1.128657 	 6.943336 
O 	 3.453580 	 -6.486730 	 7.179831 
O 	 -1.981537 	 0.849911 	 7.052018 
O 	 -1.832605 	 -6.093386 	 -2.218771 
O 	 2.652918 	 4.672250 	 -3.218489 
O 	 1.629659 	 -5.010554 	 -5.647389 
O 	 -3.917238 	 -3.333225 	 2.311629 
O 	 0.479631 	 1.725240 	 1.972020 
O 	 6.867297 	 6.613034 	 4.873479 
O 	 0.600139 	 3.579519 	 5.638700 
O 	 1.095320 	 6.175091 	 4.727344 
O 	 -7.667068 	 1.462395 	 -6.332933 
O 	 -6.589405 	 4.371876 	 -2.101537 
O 	 -3.072788 	 -3.179437 	 -6.718952 
O 	 4.052038 	 5.892184 	 6.356234 
O 	 2.815937 	 -1.084758 	 -3.851095 
O 	 -4.056131 	 1.728394 	 0.863832 
O 	 0.726332 	 0.063610 	 6.484417 
O 	 1.843376 	 -6.707089 	 2.993323 
O 	 -1.040230 	 3.272446 	 3.469540 
O 	 -4.809515 	 0.243544 	 -6.534837 
O 	 6.665640 	 -5.419171 	 5.180353 
O 	 -6.241635 	 -0.792619 	 -4.128232 
O 	 -4.917381 	 -4.324551 	 -4.245476 
O 	 -4.791486 	 -1.027258 	 -1.779849 
O 	 4.531542 	 4.645515 	 -5.945930 
O 	 -6.154269 	 -2.528642 	 -6.314376 
O 	 -5.698044 	 3.787028 	 4.794782 
O 	 1.422650 	 6.098549 	 0.873633 
O 	 -2.388412 	 -1.522032 	 -4.471916 
O 	 -5.274490 	 5.134284 	 6.970012 
O 	 5.973844 	 -5.129087 	 -6.775126 
O 	 -5.489742 	 -2.488297 	 5.014431 
O 	 5.474041 	 -0.567292 	 -6.746573 
O 	 1.931343 	 -0.849207 	 0.580694 
O 	 3.202235 	 -2.039413 	 4.076901 
O 	 2.385920 	 4.068430 	 2.632213 
O 	 1.238877 	 -5.605368 	 5.988945 
O 	 3.450270 	 3.267314 	 5.222364 
O 	 1.631786 	 -2.343686 	 -5.881728 
O 	 5.477847 	 2.374277 	 -3.967392 
O 	 -1.855277 	 -6.298641 	 5.345892 
O 	 -5.518426 	 -5.196588 	 6.384205 
O 	 -6.669953 	 1.200263 	 2.127046 
O 	 4.007090 	 7.338451 	 -3.966224 
O 	 2.605167 	 1.507273 	 -0.703860 
K 	 -2.491751 	 4.204240 	 0.975780 
