333
conformation = 7
H 	 -6.184380 	 3.995759 	 -188.455714 
H 	 -5.550537 	 5.312717 	 -187.843686 
H 	 5.363370 	 1.378683 	 -183.197849 
H 	 6.328879 	 0.234565 	 -183.708619 
H 	 -3.797820 	 4.234636 	 304.207812 
H 	 -4.137003 	 4.949088 	 -182.171347 
H 	 6.339057 	 4.985306 	 -190.031472 
H 	 -6.995455 	 5.125276 	 -189.897878 
H 	 -5.023061 	 2.537888 	 307.003936 
H 	 -5.528447 	 2.929695 	 305.570528 
H 	 -7.491421 	 2.166415 	 304.917740 
H 	 -6.987475 	 3.487812 	 304.341801 
H 	 -1.593486 	 0.454519 	 -190.122369 
H 	 -2.143213 	 1.874241 	 -190.381679 
H 	 -5.489697 	 -3.536553 	 304.912938 
H 	 -3.934190 	 -3.294521 	 304.431132 
H 	 -1.826263 	 2.246264 	 -186.193572 
H 	 -2.264105 	 2.956920 	 -184.909400 
H 	 -3.950888 	 -5.599421 	 304.595320 
H 	 -2.632925 	 -6.473396 	 304.849408 
H 	 4.284123 	 4.988206 	 -188.829289 
H 	 3.961677 	 6.152718 	 -189.755796 
H 	 -1.484313 	 -3.690270 	 304.895096 
H 	 -2.053011 	 -2.328687 	 304.118535 
H 	 3.263052 	 -5.529158 	 304.032328 
H 	 3.074036 	 -5.004672 	 305.549910 
H 	 -7.319101 	 -4.068245 	 306.340814 
H 	 -6.303644 	 -3.042645 	 307.244147 
H 	 2.217990 	 4.955329 	 -184.790569 
H 	 0.973593 	 5.932178 	 -184.629833 
H 	 7.154393 	 5.597200 	 304.482076 
H 	 -6.385950 	 5.543660 	 305.239415 
H 	 4.275687 	 3.057755 	 -181.967177 
H 	 3.279238 	 1.762006 	 -182.005386 
H 	 -3.565080 	 -0.766846 	 -184.033757 
H 	 -4.896721 	 -1.447311 	 -184.584198 
H 	 -0.924318 	 -0.901839 	 -188.193535 
H 	 -2.329652 	 -1.655704 	 -188.007106 
H 	 0.948272 	 -2.051438 	 -185.861064 
H 	 2.041201 	 -1.642766 	 -186.855295 
H 	 -1.330996 	 -7.633418 	 -188.009711 
H 	 -0.999869 	 -7.026805 	 -186.561717 
H 	 2.354006 	 -4.349736 	 -186.193253 
H 	 2.494552 	 -5.916628 	 -186.468342 
H 	 -6.026986 	 1.541290 	 -188.227913 
H 	 -7.490460 	 1.970825 	 -188.932078 
H 	 -4.556399 	 5.888651 	 308.422855 
H 	 -4.714215 	 5.632231 	 -190.023665 
H 	 2.720653 	 1.061749 	 307.012044 
H 	 2.195835 	 1.170726 	 308.470158 
H 	 2.183356 	 4.800192 	 304.000541 
H 	 1.028286 	 5.692175 	 303.629903 
H 	 -0.171791 	 -6.863081 	 -182.653127 
H 	 -0.991814 	 -7.578027 	 303.405980 
H 	 2.289282 	 6.817875 	 -187.200255 
H 	 0.907976 	 7.214337 	 -187.648010 
H 	 -6.312953 	 -6.433857 	 -184.910953 
H 	 -6.402929 	 -6.011930 	 -183.407652 
H 	 -6.181221 	 -0.830649 	 -187.135316 
H 	 -6.467349 	 -0.313782 	 -185.668350 
H 	 5.138879 	 5.440990 	 -181.887749 
H 	 5.976731 	 4.325964 	 -182.653949 
H 	 -6.533063 	 -1.466872 	 305.295166 
H 	 -7.225351 	 -0.089926 	 305.378302 
H 	 6.938442 	 3.975724 	 -185.628525 
H 	 6.646557 	 3.050161 	 -186.715939 
H 	 -5.484811 	 -4.145322 	 -184.015049 
H 	 -5.108419 	 -3.325273 	 -182.738055 
H 	 -4.678504 	 1.050310 	 309.077611 
H 	 -6.097948 	 1.385981 	 308.957062 
H 	 5.377810 	 0.725832 	 -189.232769 
H 	 4.783660 	 2.133445 	 -189.108546 
H 	 -3.966299 	 0.550375 	 -186.937611 
H 	 -3.624136 	 0.703686 	 -188.424514 
H 	 1.357008 	 1.740343 	 -186.230390 
H 	 2.828165 	 1.174037 	 -186.127229 
H 	 1.556520 	 -1.561642 	 305.571544 
H 	 1.644247 	 -1.926859 	 304.151198 
H 	 5.831604 	 -2.982798 	 -182.731282 
H 	 5.040241 	 -4.233639 	 -182.808868 
H 	 0.406716 	 -6.407811 	 -184.895802 
H 	 1.686557 	 -6.559661 	 -183.834443 
H 	 5.309938 	 -0.730830 	 306.420008 
H 	 5.972488 	 -2.137431 	 306.606154 
H 	 -3.645815 	 -5.255240 	 306.831145 
H 	 -3.059019 	 -6.230564 	 307.926628 
H 	 -6.831639 	 5.192343 	 -182.869440 
H 	 -7.353141 	 5.518703 	 -184.306598 
H 	 1.491711 	 -4.066021 	 303.730170 
H 	 0.616270 	 -3.616316 	 -182.468014 
H 	 3.532697 	 2.992486 	 -187.275947 
H 	 2.392990 	 3.736038 	 -188.068115 
H 	 -4.865021 	 -7.639686 	 -183.358434 
H 	 -3.590321 	 6.641429 	 -184.106964 
H 	 -2.354947 	 -5.901702 	 -182.500045 
H 	 -3.596707 	 -5.995928 	 -183.444996 
H 	 1.393707 	 -0.297079 	 -188.414884 
H 	 0.078451 	 -0.767042 	 -189.953373 
H 	 -3.888776 	 -3.446280 	 -188.895470 
H 	 -4.042550 	 -2.331777 	 -189.778473 
H 	 -1.564044 	 4.242939 	 308.972108 
H 	 -3.022837 	 4.122873 	 -190.534593 
H 	 4.218831 	 -6.734090 	 -183.912030 
H 	 3.490449 	 -5.370194 	 -184.154251 
H 	 5.427257 	 -1.573825 	 -187.918792 
H 	 6.730375 	 -0.836310 	 -187.337307 
H 	 3.858107 	 -4.636253 	 -188.626334 
H 	 2.769215 	 -5.633349 	 -188.395971 
H 	 1.986704 	 0.123957 	 -183.168104 
H 	 1.753780 	 1.318858 	 -184.059795 
H 	 6.204951 	 -7.371042 	 304.563193 
H 	 4.934476 	 6.736394 	 305.111023 
H 	 -5.704776 	 3.025929 	 -186.089499 
H 	 -4.203369 	 2.537936 	 -185.744349 
H 	 4.143407 	 5.705538 	 -186.211594 
H 	 4.408607 	 6.784100 	 -187.267776 
H 	 3.649246 	 3.325380 	 -184.952441 
H 	 4.283730 	 4.467863 	 -184.062250 
H 	 2.851189 	 -1.740409 	 -184.654866 
H 	 2.345405 	 -2.363866 	 -183.343229 
H 	 -0.110846 	 -5.631890 	 308.008767 
H 	 0.434793 	 -7.024686 	 307.483703 
H 	 3.762015 	 -2.967912 	 306.458684 
H 	 2.820712 	 -3.743602 	 307.508224 
H 	 -7.357735 	 6.744212 	 -186.303748 
H 	 6.197660 	 7.161049 	 -185.641297 
H 	 -0.804995 	 -4.809413 	 -184.955953 
H 	 -0.350481 	 -4.829151 	 -186.479535 
H 	 -1.683365 	 6.312184 	 -185.614772 
H 	 -1.522636 	 5.096326 	 -184.620918 
H 	 -0.568250 	 -2.057732 	 307.645650 
H 	 0.836378 	 -2.060705 	 308.307853 
H 	 1.204523 	 6.187816 	 308.426739 
H 	 0.558032 	 5.289150 	 307.365239 
H 	 -4.129997 	 -2.081681 	 307.596846 
H 	 -5.349799 	 -1.128496 	 307.668242 
H 	 -5.334591 	 6.599424 	 -185.615289 
H 	 -4.405711 	 5.474619 	 -186.068027 
H 	 -0.826859 	 1.364560 	 -187.974181 
H 	 -0.246803 	 2.815994 	 -187.710190 
H 	 -2.414949 	 6.815115 	 -190.076496 
H 	 -1.729977 	 -6.672725 	 -189.729057 
H 	 7.194644 	 -5.337697 	 -181.846319 
H 	 -6.381410 	 -5.567867 	 303.937594 
H 	 -2.126038 	 -0.189291 	 -182.261823 
H 	 -3.416554 	 -0.552101 	 303.591267 
H 	 3.781443 	 3.098475 	 305.254106 
H 	 3.551274 	 3.528369 	 306.672536 
H 	 -1.608505 	 0.572903 	 306.502133 
H 	 -2.651566 	 0.809203 	 307.583196 
H 	 -1.466051 	 3.166898 	 306.399704 
H 	 -2.708498 	 2.831991 	 305.776220 
H 	 5.000804 	 -1.553016 	 -190.473460 
H 	 4.021582 	 -0.454935 	 308.951885 
H 	 5.528375 	 0.774164 	 -186.712457 
H 	 5.355985 	 1.570270 	 -185.364323 
H 	 -5.324755 	 -5.596796 	 308.514897 
H 	 -5.898816 	 -6.686748 	 -190.454289 
H 	 1.000398 	 2.998389 	 308.333532 
H 	 0.898027 	 2.243369 	 306.971187 
H 	 -0.738864 	 -2.896863 	 -187.646736 
H 	 0.521680 	 -3.615278 	 -188.231863 
H 	 -6.730001 	 -1.624776 	 -183.355194 
H 	 7.166645 	 -0.980972 	 -182.291123 
H 	 -2.356186 	 -2.742136 	 306.548558 
H 	 -2.377517 	 -3.542281 	 307.854709 
H 	 -1.551984 	 4.843720 	 -181.721071 
H 	 -1.050510 	 5.059999 	 304.727246 
H 	 -5.046636 	 0.029992 	 304.635761 
H 	 -3.733284 	 0.453105 	 305.291212 
H 	 -7.151156 	 -2.315899 	 -190.298468 
H 	 6.919572 	 -3.451567 	 309.071483 
H 	 3.165617 	 -7.314525 	 305.612072 
H 	 3.026165 	 5.927359 	 305.660327 
H 	 6.137646 	 -3.554814 	 -187.694023 
H 	 5.984976 	 -3.396687 	 -189.126625 
H 	 6.531594 	 -6.618105 	 -189.005294 
H 	 6.554462 	 6.837023 	 -188.391946 
H 	 -7.172259 	 -2.941860 	 -185.892269 
H 	 6.877784 	 -3.645706 	 -184.902916 
H 	 2.056525 	 2.035723 	 -189.391759 
H 	 0.692078 	 1.393262 	 -189.722833 
H 	 4.816810 	 -5.667015 	 -190.419890 
H 	 5.953349 	 -5.757603 	 308.537200 
H 	 5.217795 	 1.328916 	 305.104206 
H 	 5.989759 	 1.622610 	 306.473247 
H 	 -1.403803 	 2.722822 	 -182.949230 
H 	 -2.848719 	 3.451131 	 -182.726813 
H 	 -5.461334 	 -4.903258 	 -187.997203 
H 	 -5.860567 	 -4.749522 	 -189.447727 
H 	 6.223070 	 2.367026 	 308.888680 
H 	 6.847026 	 3.322019 	 308.034305 
H 	 3.397252 	 -7.519008 	 308.354323 
H 	 2.598545 	 -7.093208 	 -190.283926 
H 	 6.441327 	 -6.156815 	 306.274382 
H 	 5.320057 	 -5.252441 	 305.601045 
H 	 2.974730 	 -2.477609 	 -190.593364 
H 	 2.352607 	 -3.893797 	 -190.245864 
H 	 -1.935478 	 -3.813066 	 -183.147645 
H 	 -1.191421 	 -2.514952 	 -183.868066 
H 	 -0.272961 	 -5.470697 	 304.415294 
H 	 0.232135 	 -5.074578 	 305.880670 
H 	 -0.731116 	 1.518450 	 304.437094 
H 	 0.274219 	 1.275766 	 -181.797107 
H 	 -1.228480 	 6.415120 	 307.428600 
H 	 -1.470339 	 6.538597 	 305.914361 
H 	 0.387759 	 -0.025439 	 306.815496 
H 	 0.862374 	 0.270044 	 305.400759 
H 	 -2.269723 	 -4.312350 	 -190.362534 
H 	 -1.122610 	 -4.405679 	 -189.305567 
H 	 2.904154 	 -0.719923 	 -188.533310 
H 	 -0.963766 	 -1.014348 	 -185.774655 
H 	 -4.153846 	 6.290875 	 306.085924 
H 	 -4.918734 	 4.966080 	 306.391501 
H 	 6.855376 	 6.852107 	 307.960046 
H 	 5.724986 	 6.350514 	 307.030913 
H 	 5.087785 	 -1.714759 	 304.111137 
H 	 4.169908 	 -1.405783 	 -182.319450 
H 	 0.800328 	 5.147827 	 -187.195724 
H 	 0.633276 	 5.292227 	 -188.669331 
H 	 -0.025346 	 -0.405855 	 -184.596851 
O 	 -5.766385 	 4.872566 	 -188.684205 
O 	 6.020946 	 1.162054 	 -183.875303 
O 	 -4.118947 	 4.041865 	 -181.793081 
O 	 7.181662 	 4.993500 	 -190.579483 
O 	 -4.804553 	 3.125161 	 306.243408 
O 	 -6.795823 	 2.516314 	 304.265483 
O 	 -2.442874 	 0.939215 	 -190.276490 
O 	 -4.826053 	 -3.696948 	 304.200147 
O 	 -2.579821 	 2.221793 	 -185.546544 
O 	 -3.508409 	 -6.208613 	 305.206783 
O 	 4.731674 	 5.758993 	 -189.253882 
O 	 -2.135796 	 -2.929621 	 304.896821 
O 	 3.444919 	 -5.721434 	 304.980342 
O 	 -6.734928 	 -3.297653 	 306.378306 
O 	 1.264539 	 5.061003 	 -185.027901 
O 	 -6.804941 	 5.193647 	 304.396799 
O 	 4.012044 	 2.179372 	 303.595221 
O 	 -4.287508 	 -0.677575 	 -184.713627 
O 	 -1.454612 	 -1.489530 	 -187.497247 
O 	 1.797295 	 -2.375672 	 -186.237474 
O 	 -0.864867 	 7.095260 	 -187.139689 
O 	 3.026132 	 -5.072962 	 -186.225770 
O 	 -6.498000 	 1.952471 	 -189.035303 
O 	 -4.139886 	 6.112312 	 -190.694651 
O 	 2.951341 	 0.765806 	 307.898809 
O 	 1.986686 	 5.710887 	 303.834506 
O 	 -0.766274 	 -6.669971 	 -181.898960 
O 	 1.865618 	 -7.515126 	 -187.856067 
O 	 -5.774004 	 -6.130370 	 -184.167089 
O 	 -6.700742 	 -0.995874 	 -186.342846 
O 	 5.057580 	 4.528934 	 -182.367622 
O 	 -6.382233 	 -0.508475 	 305.461223 
O 	 7.279785 	 3.777949 	 -186.512930 
O 	 -5.459393 	 -3.234295 	 -183.637251 
O 	 -5.364075 	 1.093391 	 308.409509 
O 	 5.558847 	 1.682096 	 -189.464438 
O 	 -4.345433 	 0.434048 	 -187.838194 
O 	 2.166244 	 1.746440 	 -185.651307 
O 	 1.990207 	 -1.263585 	 304.797731 
O 	 5.983894 	 -3.944385 	 -182.832000 
O 	 0.868888 	 -6.947889 	 -184.138913 
O 	 5.165797 	 -1.736476 	 306.296057 
O 	 -3.491229 	 -5.359335 	 307.807069 
O 	 -7.276130 	 4.771226 	 -183.655983 
O 	 1.559612 	 -3.483123 	 -182.135043 
O 	 3.256332 	 3.197140 	 -188.180009 
O 	 -4.025451 	 6.792772 	 -183.290203 
O 	 -3.015537 	 -5.363830 	 -182.950922 
O 	 -0.110732 	 -0.213567 	 -189.167784 
O 	 -3.327924 	 -2.851776 	 -189.372858 
O 	 -2.295269 	 3.611076 	 -190.908290 
O 	 3.680440 	 -6.021334 	 -183.452040 
O 	 5.875914 	 -0.688672 	 -187.824538 
O 	 3.185786 	 -5.115723 	 -189.099687 
O 	 1.740134 	 1.060660 	 -183.148573 
O 	 5.593434 	 6.779846 	 304.401427 
O 	 -5.179578 	 2.485183 	 -185.487547 
O 	 4.137125 	 6.662462 	 -186.348912 
O 	 3.958260 	 4.245265 	 -184.953826 
O 	 2.802812 	 -1.592457 	 -183.661857 
O 	 0.504851 	 -6.065755 	 307.421521 
O 	 3.052420 	 -3.699512 	 306.562934 
O 	 7.151175 	 7.098942 	 -185.469778 
O 	 -0.613166 	 -5.432021 	 -185.708404 
O 	 -2.191535 	 5.665900 	 -185.083113 
O 	 0.176353 	 -1.491697 	 307.892720 
O 	 0.332030 	 5.772890 	 308.202274 
O 	 -5.044487 	 -2.012110 	 307.970916 
O 	 -5.009797 	 6.164604 	 -186.413971 
O 	 -0.601101 	 2.022860 	 -187.314893 
O 	 -1.561108 	 7.222698 	 -189.727789 
O 	 -6.966854 	 -6.012957 	 -181.775390 
O 	 -2.755453 	 -0.912908 	 -182.217478 
O 	 3.841032 	 3.866674 	 305.838388 
O 	 -2.522205 	 0.848675 	 306.600426 
O 	 -2.017704 	 3.544876 	 305.689684 
O 	 4.088227 	 -1.131799 	 -190.363854 
O 	 5.152883 	 1.618930 	 -186.311442 
O 	 -6.078103 	 -5.860235 	 -190.907187 
O 	 0.984841 	 3.147905 	 307.356821 
O 	 -0.387054 	 -3.819489 	 -187.940112 
O 	 -7.214630 	 -0.820560 	 -183.079908 
O 	 -2.317089 	 -2.583711 	 307.568084 
O 	 -1.274344 	 5.584745 	 303.939362 
O 	 -4.241302 	 0.588564 	 304.447747 
O 	 6.874801 	 -2.503623 	 -190.726113 
O 	 3.453941 	 6.697992 	 306.039065 
O 	 5.400078 	 -3.490549 	 -188.355859 
O 	 6.965322 	 -7.178361 	 -188.349945 
O 	 7.053541 	 -3.656034 	 -185.886199 
O 	 1.384028 	 2.041738 	 -190.068683 
O 	 5.733747 	 -5.442746 	 -190.545164 
O 	 5.968420 	 1.067833 	 305.679693 
O 	 -1.885373 	 3.533408 	 -183.098067 
O 	 -5.566657 	 -4.177446 	 -188.672259 
O 	 6.553623 	 2.389539 	 307.965223 
O 	 2.963744 	 7.064277 	 -190.808148 
O 	 6.229471 	 -5.230838 	 305.946672 
O 	 2.301352 	 -3.130033 	 -190.883416 
O 	 -1.126226 	 -3.488766 	 -183.544354 
O 	 -0.041203 	 -4.692741 	 304.998113 
O 	 -0.701209 	 1.368150 	 303.478038 
O 	 -1.921899 	 6.688359 	 306.768712 
O 	 0.360429 	 0.676869 	 306.143371 
O 	 -1.589532 	 -4.954125 	 -189.973697 
O 	 2.266141 	 -0.342929 	 -187.892590 
O 	 -5.026503 	 5.969395 	 306.343474 
O 	 6.221183 	 7.137732 	 307.260115 
O 	 5.136839 	 -1.480064 	 -181.980689 
O 	 0.785879 	 4.571094 	 -188.048283 
O 	 -0.396019 	 -1.206360 	 -184.964252 
K 	 -5.589503 	 1.564763 	 -183.142439 
