333
conformation = 15
H 	 -2.918186 	 6.825764 	 -4.207825 
H 	 -2.534142 	 -6.776041 	 -3.605577 
H 	 -6.407840 	 4.111343 	 1.024725 
H 	 -5.280976 	 3.118800 	 0.401314 
H 	 -0.681505 	 7.005453 	 3.273086 
H 	 -1.096821 	 -7.085076 	 2.043245 
H 	 -5.354757 	 -7.100338 	 -5.820233 
H 	 -3.830067 	 -6.962705 	 -5.847702 
H 	 -1.882182 	 5.372924 	 6.088191 
H 	 -2.405551 	 5.700344 	 4.727249 
H 	 -4.306124 	 4.917406 	 3.907684 
H 	 -3.802023 	 6.332460 	 3.453113 
H 	 1.501320 	 3.227919 	 -5.834711 
H 	 1.016709 	 4.648510 	 -6.145336 
H 	 -2.322450 	 -0.819497 	 4.034000 
H 	 -0.873750 	 -0.407538 	 3.545308 
H 	 1.233548 	 5.052944 	 -2.071553 
H 	 0.720225 	 5.771122 	 -0.754636 
H 	 -0.804848 	 -2.738800 	 3.629485 
H 	 0.470380 	 -3.572112 	 3.908117 
H 	 -7.501024 	 -7.104380 	 -4.634993 
H 	 7.109232 	 -5.879074 	 -5.544521 
H 	 1.697728 	 -0.809519 	 3.973908 
H 	 1.048298 	 0.465215 	 3.175347 
H 	 6.352321 	 -2.685183 	 3.140137 
H 	 6.234455 	 -2.172374 	 4.636558 
H 	 -4.211850 	 -1.232847 	 5.540198 
H 	 -3.178944 	 -0.124059 	 6.269659 
H 	 5.327708 	 -7.130502 	 -0.699048 
H 	 4.211581 	 -6.175850 	 -0.404004 
H 	 -4.516938 	 -6.391196 	 3.511983 
H 	 -3.225091 	 -6.519847 	 4.268168 
H 	 -7.603361 	 5.824212 	 2.226409 
H 	 6.404238 	 4.599876 	 2.118867 
H 	 -0.448885 	 2.075711 	 0.107769 
H 	 -1.631369 	 1.339722 	 -0.367698 
H 	 2.198081 	 1.894548 	 -4.090738 
H 	 0.863971 	 1.061140 	 -3.701632 
H 	 4.070118 	 0.706809 	 -1.715186 
H 	 5.201589 	 1.157023 	 -2.711574 
H 	 1.844730 	 -4.797082 	 -3.823717 
H 	 2.182211 	 -4.154987 	 -2.417020 
H 	 5.496849 	 -1.530347 	 -1.981923 
H 	 5.701656 	 -3.048223 	 -2.228143 
H 	 -3.012451 	 4.351660 	 -4.058281 
H 	 -4.308517 	 4.744348 	 -4.725790 
H 	 -1.398034 	 -6.269104 	 -7.329105 
H 	 -1.487975 	 -6.404428 	 -5.771825 
H 	 5.816605 	 3.827447 	 6.035175 
H 	 5.406455 	 3.952506 	 -7.424327 
H 	 5.285338 	 7.568827 	 3.176761 
H 	 4.174648 	 -6.306879 	 2.584703 
H 	 3.000490 	 -3.944259 	 1.464666 
H 	 2.138347 	 -4.807868 	 2.482622 
H 	 5.394722 	 -5.273621 	 -2.941567 
H 	 3.996728 	 -4.781554 	 -3.501457 
H 	 -3.198437 	 -3.614441 	 -0.756674 
H 	 -3.263630 	 -3.196216 	 0.775130 
H 	 -2.983252 	 1.987521 	 -2.975999 
H 	 -3.351050 	 2.517743 	 -1.581596 
H 	 -6.561866 	 -6.727979 	 2.289178 
H 	 -5.750552 	 7.250454 	 1.498028 
H 	 -3.424212 	 1.379057 	 4.370673 
H 	 -4.164207 	 2.733694 	 4.535047 
H 	 -4.813093 	 6.771669 	 -1.419154 
H 	 -5.129428 	 5.817941 	 -2.558567 
H 	 -2.531895 	 -1.315389 	 0.128033 
H 	 -2.024288 	 -0.555969 	 1.479856 
H 	 -1.453601 	 3.819115 	 -6.785015 
H 	 -2.940618 	 4.144168 	 -6.767461 
H 	 -6.377012 	 3.554921 	 -5.065485 
H 	 -7.026912 	 5.022179 	 -5.031934 
H 	 -0.854701 	 3.237263 	 -2.759755 
H 	 -0.525281 	 3.611057 	 -4.302473 
H 	 4.550990 	 4.600189 	 -2.073451 
H 	 5.868695 	 3.937687 	 -1.986397 
H 	 4.648437 	 1.238134 	 4.727555 
H 	 4.734008 	 0.929277 	 3.228692 
H 	 -5.832072 	 -0.165288 	 1.411472 
H 	 -6.745822 	 -1.417072 	 1.336384 
H 	 3.675779 	 -3.506365 	 -0.588311 
H 	 4.938311 	 -3.829073 	 0.322536 
H 	 -6.426780 	 1.974172 	 5.516966 
H 	 -5.757053 	 0.609513 	 5.731599 
H 	 -0.385238 	 -2.545444 	 5.896065 
H 	 0.033891 	 -3.468090 	 6.961247 
H 	 -3.711420 	 -6.857216 	 1.290303 
H 	 -4.235902 	 -6.609306 	 -0.153416 
H 	 4.610019 	 -1.185871 	 2.862884 
H 	 3.752128 	 -0.736568 	 1.702710 
H 	 6.702216 	 5.833036 	 -3.086586 
H 	 5.561722 	 6.499083 	 -4.078493 
H 	 -1.742562 	 -4.767536 	 0.775373 
H 	 -0.509422 	 -5.400266 	 -0.033007 
H 	 0.824940 	 -3.193818 	 1.566458 
H 	 -0.468541 	 -3.171362 	 0.836760 
H 	 4.541105 	 2.506665 	 -4.257670 
H 	 3.175829 	 2.106430 	 -5.807445 
H 	 -0.808369 	 -0.783362 	 -4.814066 
H 	 -0.821197 	 0.523897 	 -5.699573 
H 	 1.532344 	 7.099486 	 -6.855302 
H 	 0.048222 	 6.999824 	 -6.473862 
H 	 -7.631136 	 -3.970589 	 0.361482 
H 	 6.507124 	 -2.592494 	 0.005588 
H 	 -6.376200 	 1.256643 	 -3.740216 
H 	 -5.124649 	 1.819661 	 -3.107471 
H 	 7.082027 	 -1.759056 	 -4.439275 
H 	 5.812610 	 -2.841354 	 -4.283542 
H 	 5.083936 	 2.881243 	 0.928157 
H 	 5.009817 	 4.282813 	 0.094571 
H 	 -5.573086 	 -4.568579 	 3.645459 
H 	 -6.878454 	 -5.311383 	 4.215697 
H 	 -2.582916 	 5.908760 	 -1.894181 
H 	 -1.100741 	 5.233449 	 -1.513655 
H 	 7.197965 	 -6.420696 	 -2.103680 
H 	 -7.311708 	 -5.273145 	 -3.087845 
H 	 6.687670 	 6.180039 	 -0.827192 
H 	 -7.497299 	 7.249370 	 0.163057 
H 	 5.959309 	 1.073894 	 -0.438947 
H 	 5.440775 	 0.439915 	 0.863408 
H 	 3.122670 	 -2.750883 	 7.210656 
H 	 3.551226 	 -4.206330 	 6.589767 
H 	 6.833758 	 -0.193947 	 5.643853 
H 	 5.948233 	 -0.879179 	 6.614423 
H 	 -4.246052 	 -5.340030 	 -2.086506 
H 	 -5.611183 	 -5.007471 	 -1.277219 
H 	 2.276924 	 -1.933233 	 -0.803381 
H 	 2.777866 	 -1.999752 	 -2.253090 
H 	 1.483284 	 -5.896467 	 -1.494240 
H 	 1.567321 	 -6.961847 	 -0.336969 
H 	 2.543138 	 0.715023 	 6.732942 
H 	 4.056909 	 0.685361 	 7.244487 
H 	 4.291567 	 -5.899592 	 -7.341003 
H 	 3.667995 	 -6.888975 	 6.514577 
H 	 -0.986697 	 0.714024 	 6.777330 
H 	 -2.261408 	 1.721962 	 6.796936 
H 	 -2.190060 	 -5.442345 	 -1.434450 
H 	 -1.286267 	 -6.618407 	 -1.864883 
H 	 2.282369 	 4.160255 	 -3.823586 
H 	 2.900276 	 5.632824 	 -3.637325 
H 	 0.810769 	 -5.323621 	 -5.885245 
H 	 1.456058 	 -3.892133 	 -5.623870 
H 	 -4.521240 	 -2.498529 	 2.362078 
H 	 -3.207760 	 -2.713877 	 2.987060 
H 	 1.031219 	 2.659382 	 1.963438 
H 	 -0.244839 	 2.295099 	 2.595097 
H 	 6.948649 	 5.893873 	 4.323239 
H 	 6.669732 	 6.429795 	 5.841496 
H 	 1.584085 	 3.466036 	 5.627860 
H 	 0.413582 	 3.708949 	 6.627522 
H 	 1.668799 	 5.982639 	 5.479167 
H 	 0.395921 	 5.684509 	 4.814483 
H 	 -6.812760 	 1.279409 	 -6.312137 
H 	 7.109012 	 2.363385 	 -6.916119 
H 	 -6.501401 	 3.581875 	 -2.531466 
H 	 -6.367857 	 4.348272 	 -1.132411 
H 	 -2.196073 	 -2.976610 	 -7.348317 
H 	 -2.685436 	 -3.864995 	 -6.236587 
H 	 4.063349 	 5.800459 	 -7.515375 
H 	 4.112931 	 5.070618 	 6.061390 
H 	 2.366570 	 -0.043908 	 -3.493483 
H 	 3.693438 	 -0.804903 	 -3.919504 
H 	 -3.579616 	 1.174774 	 0.783734 
H 	 -4.559059 	 1.791823 	 1.909396 
H 	 0.714283 	 0.104634 	 5.664184 
H 	 0.649883 	 -0.658507 	 6.971590 
H 	 1.642280 	 7.567285 	 2.431729 
H 	 2.036115 	 -6.911349 	 3.904160 
H 	 -1.881780 	 2.828719 	 3.614017 
H 	 -0.579512 	 3.252494 	 4.370421 
H 	 -3.977342 	 0.527203 	 -6.226557 
H 	 -4.822691 	 -0.637519 	 -6.713983 
H 	 6.294700 	 -4.556613 	 4.714628 
H 	 6.110025 	 -6.106414 	 4.700625 
H 	 -5.681661 	 -0.705959 	 -3.424917 
H 	 -5.716731 	 -0.523729 	 -4.930363 
H 	 -5.351757 	 -3.807120 	 -4.845471 
H 	 -5.179638 	 -5.221575 	 -4.202292 
H 	 -4.104134 	 -0.095579 	 -1.759161 
H 	 -5.001401 	 -0.788597 	 -0.777832 
H 	 5.305501 	 4.934597 	 -5.270389 
H 	 3.881577 	 4.259339 	 -5.395027 
H 	 -7.015033 	 -2.854915 	 -6.183530 
H 	 -5.785574 	 -2.834736 	 -7.222235 
H 	 -6.532044 	 4.171095 	 4.215460 
H 	 -5.753308 	 4.518753 	 5.608600 
H 	 1.729768 	 5.466717 	 1.286969 
H 	 0.353528 	 6.272130 	 1.431915 
H 	 -2.366583 	 -2.088669 	 -3.861727 
H 	 -2.800498 	 -1.776954 	 -5.284629 
H 	 -5.577529 	 5.084231 	 -6.936630 
H 	 -5.015791 	 6.190924 	 7.033071 
H 	 6.518234 	 -4.641238 	 -7.415174 
H 	 5.720878 	 -4.213512 	 -6.219125 
H 	 -5.366272 	 -3.264801 	 5.409659 
H 	 -6.461385 	 -2.477317 	 4.695790 
H 	 6.127652 	 0.357479 	 -6.460902 
H 	 5.498069 	 -1.074873 	 -6.067317 
H 	 1.108473 	 -1.033052 	 0.973910 
H 	 1.925862 	 0.215034 	 0.325932 
H 	 2.884221 	 -2.629698 	 3.500917 
H 	 3.403997 	 -2.300248 	 4.926505 
H 	 2.431950 	 4.275645 	 3.567051 
H 	 3.366009 	 4.130479 	 2.372105 
H 	 1.904491 	 -5.695883 	 6.540026 
H 	 1.635795 	 -5.565274 	 5.021881 
H 	 3.567401 	 2.785522 	 5.970162 
H 	 3.892669 	 3.069029 	 4.426951 
H 	 0.931710 	 -1.549893 	 -6.173423 
H 	 2.088593 	 -1.589832 	 -5.153364 
H 	 6.157719 	 2.319404 	 -4.383063 
H 	 2.137838 	 1.834038 	 -1.523301 
H 	 -1.008047 	 -5.729482 	 5.187965 
H 	 -1.786320 	 -7.095788 	 5.454776 
H 	 -4.945473 	 -5.303724 	 7.039262 
H 	 -6.153037 	 -5.688342 	 6.045237 
H 	 -6.684653 	 1.167472 	 3.113796 
H 	 -7.510825 	 1.383387 	 1.796066 
H 	 3.964309 	 -6.937799 	 -3.100146 
H 	 3.787849 	 -6.783485 	 -4.569054 
H 	 3.088563 	 2.431095 	 -0.361009 
O 	 -2.641849 	 7.707008 	 -4.509017 
O 	 -5.742796 	 3.995000 	 0.301843 
O 	 -0.957992 	 6.867645 	 2.335966 
O 	 -4.606607 	 -7.106273 	 -6.414151 
O 	 -1.688235 	 5.966980 	 5.324934 
O 	 -3.673070 	 5.342914 	 3.340590 
O 	 0.677105 	 3.722953 	 -6.094419 
O 	 -1.678596 	 -0.890756 	 3.276128 
O 	 0.551468 	 5.045386 	 -1.361065 
O 	 -0.392555 	 -3.371695 	 4.272189 
O 	 -7.059570 	 -6.357912 	 -5.087189 
O 	 0.995273 	 -0.121052 	 3.968537 
O 	 6.593433 	 -2.907791 	 4.046702 
O 	 -3.599523 	 -0.440480 	 5.443631 
O 	 4.374903 	 -6.999243 	 -0.881628 
O 	 -3.686597 	 -6.875883 	 3.487120 
O 	 7.148528 	 4.998404 	 2.688161 
O 	 -1.149629 	 2.163168 	 -0.552997 
O 	 1.682260 	 1.317829 	 -3.288397 
O 	 4.966400 	 0.449324 	 -2.044005 
O 	 2.231039 	 -5.014807 	 -2.924152 
O 	 6.149748 	 -2.254528 	 -2.028490 
O 	 -3.349392 	 4.764543 	 -4.845893 
O 	 -1.005817 	 -5.979479 	 -6.500161 
O 	 6.093494 	 3.582316 	 6.943347 
O 	 5.097773 	 -6.376740 	 2.913097 
O 	 2.362839 	 -3.830567 	 2.274196 
O 	 4.986757 	 -4.738560 	 -3.678610 
O 	 -2.647701 	 -3.348381 	 0.015543 
O 	 -3.599077 	 1.832089 	 -2.205128 
O 	 -6.689695 	 7.355128 	 1.825080 
O 	 -3.232357 	 2.314621 	 4.547771 
O 	 -4.532258 	 6.572335 	 -2.337845 
O 	 -2.334720 	 -0.439518 	 0.521918 
O 	 -2.212844 	 3.934537 	 -7.433898 
O 	 -6.208988 	 4.504553 	 -5.275326 
O 	 -1.207418 	 3.267802 	 -3.669750 
O 	 5.330951 	 4.584440 	 -1.496839 
O 	 5.115807 	 1.563550 	 3.872024 
O 	 -5.816080 	 -1.159762 	 1.350886 
O 	 4.024763 	 -4.148765 	 0.045333 
O 	 -6.597183 	 1.052377 	 5.378142 
O 	 -0.361247 	 -2.572857 	 6.898165 
O 	 -4.133686 	 7.613767 	 0.539820 
O 	 4.669604 	 -0.650701 	 2.014208 
O 	 6.386592 	 5.998126 	 -4.011409 
O 	 -0.892592 	 -5.271890 	 0.912533 
O 	 0.132883 	 -2.535827 	 1.229663 
O 	 3.004795 	 2.597762 	 -4.982348 
O 	 -0.188693 	 -0.030854 	 -5.180232 
O 	 0.821271 	 6.442173 	 -6.745420 
O 	 6.835039 	 -3.199792 	 0.712209 
O 	 -5.890664 	 2.109633 	 -3.648920 
O 	 6.337882 	 -2.296385 	 -4.917125 
O 	 4.887222 	 3.859251 	 1.042290 
O 	 -6.155652 	 -5.328187 	 3.471703 
O 	 -2.054771 	 5.326635 	 -1.287721 
O 	 7.229227 	 -5.425489 	 -2.171185 
O 	 7.096060 	 7.078346 	 -0.790863 
O 	 5.958906 	 1.239153 	 0.517279 
O 	 3.641630 	 -3.233618 	 6.500656 
O 	 6.184923 	 -0.884795 	 5.629379 
O 	 -4.618206 	 -4.986604 	 -1.277654 
O 	 2.511899 	 -2.601737 	 -1.523880 
O 	 0.954169 	 -6.439415 	 -0.862310 
O 	 3.313746 	 1.314566 	 6.976247 
O 	 3.454462 	 -6.312880 	 7.267308 
O 	 -1.925265 	 0.838163 	 7.046591 
O 	 -1.870692 	 -5.926085 	 -2.229680 
O 	 2.549258 	 4.830333 	 -3.135882 
O 	 1.578333 	 -4.857466 	 -5.562185 
O 	 -3.848960 	 -3.199774 	 2.386866 
O 	 0.386098 	 1.890978 	 1.978370 
O 	 6.950977 	 6.694339 	 4.913178 
O 	 0.607554 	 3.680079 	 5.673753 
O 	 1.100703 	 6.353156 	 4.770846 
O 	 7.221900 	 1.661718 	 -6.208807 
O 	 -6.601770 	 4.452126 	 -2.109512 
O 	 -2.981698 	 -3.035592 	 -6.712869 
O 	 4.103816 	 5.975545 	 6.424365 
O 	 2.740348 	 -0.990629 	 -3.781722 
O 	 -4.088388 	 1.977170 	 1.056967 
O 	 0.801896 	 0.223252 	 6.612875 
O 	 1.842911 	 -6.515551 	 3.022224 
O 	 -1.097105 	 3.415166 	 3.530375 
O 	 -4.878318 	 0.331890 	 -6.535827 
O 	 6.603756 	 -5.363382 	 5.133516 
O 	 -6.332792 	 -0.670831 	 -4.168277 
O 	 -4.823302 	 -4.320481 	 -4.176197 
O 	 -4.732079 	 -0.848046 	 -1.713360 
O 	 4.514301 	 4.843154 	 -5.893359 
O 	 -6.066031 	 -2.575912 	 -6.345959 
O 	 -5.779664 	 3.895918 	 4.767846 
O 	 1.277095 	 6.332020 	 1.038500 
O 	 -2.418602 	 -1.364294 	 -4.480382 
O 	 -5.227070 	 5.222893 	 7.042330 
O 	 6.073742 	 -5.019513 	 -6.648873 
O 	 -5.525711 	 -2.392007 	 5.026559 
O 	 5.445102 	 -0.336583 	 -6.702859 
O 	 1.985744 	 -0.672129 	 0.629228 
O 	 3.108150 	 -1.879368 	 4.090007 
O 	 2.422332 	 4.194447 	 2.590163 
O 	 1.226219 	 -5.416920 	 5.881661 
O 	 3.477186 	 3.479431 	 5.223018 
O 	 1.547618 	 -2.142576 	 -5.792461 
O 	 5.408407 	 2.479931 	 -3.762033 
O 	 -1.890212 	 -6.120618 	 5.407163 
O 	 -5.541607 	 -4.969303 	 6.350500 
O 	 -6.650236 	 1.332436 	 2.185841 
O 	 3.934372 	 7.421306 	 -3.875110 
O 	 2.706362 	 1.613989 	 -0.764298 
K 	 -2.465832 	 4.371807 	 1.027076 
