333
conformation = 75
H 	 -2.659983 	 6.591182 	 -4.488513 
H 	 -2.326800 	 -7.004365 	 -3.609105 
H 	 -6.168151 	 3.814942 	 1.259016 
H 	 -5.144098 	 2.985392 	 0.433455 
H 	 -1.087855 	 6.608462 	 2.929825 
H 	 -0.953298 	 -7.174701 	 1.848088 
H 	 -5.618996 	 -7.327474 	 -6.183923 
H 	 -4.131656 	 7.467063 	 -5.776353 
H 	 -1.837127 	 5.246835 	 6.191810 
H 	 -2.436323 	 5.689788 	 4.776294 
H 	 -4.324759 	 4.834445 	 3.934793 
H 	 -3.853067 	 6.167848 	 3.489663 
H 	 1.603769 	 3.117157 	 -5.726024 
H 	 0.627263 	 4.349562 	 -6.052456 
H 	 -2.185952 	 -0.645882 	 3.931865 
H 	 -0.664273 	 -0.818598 	 3.459554 
H 	 1.283293 	 4.633503 	 -1.958114 
H 	 1.121269 	 4.949472 	 -0.486298 
H 	 -0.941990 	 -2.712085 	 3.809751 
H 	 0.393194 	 -3.489042 	 3.633052 
H 	 -7.449028 	 7.218733 	 -4.812613 
H 	 7.182225 	 -6.417466 	 -5.662732 
H 	 1.845673 	 -0.905482 	 3.743610 
H 	 1.015101 	 0.346017 	 3.182550 
H 	 6.438456 	 -3.026872 	 3.098223 
H 	 6.317738 	 -2.358230 	 4.575922 
H 	 -3.901984 	 -1.263834 	 5.232145 
H 	 -3.052135 	 -0.195810 	 6.193451 
H 	 5.189297 	 -7.293902 	 -0.816716 
H 	 4.232161 	 -6.068161 	 -0.946111 
H 	 -4.549082 	 -6.568444 	 3.893543 
H 	 -2.986654 	 -6.708029 	 4.232072 
H 	 -7.093937 	 5.468865 	 2.413607 
H 	 6.422746 	 4.529688 	 2.290885 
H 	 -0.161103 	 2.399968 	 -0.199318 
H 	 -1.165502 	 1.177618 	 -0.274477 
H 	 2.286506 	 1.606874 	 -3.750751 
H 	 0.847882 	 1.065429 	 -3.500283 
H 	 4.477162 	 0.718761 	 -1.586976 
H 	 5.682904 	 0.956149 	 -2.573492 
H 	 1.845832 	 -5.281958 	 -3.618923 
H 	 1.742121 	 -4.616268 	 -2.166485 
H 	 5.935032 	 -1.501737 	 -1.720373 
H 	 5.503706 	 -2.874381 	 -2.189829 
H 	 -2.679393 	 3.912812 	 -4.174460 
H 	 -4.124241 	 4.631045 	 -4.682659 
H 	 -1.370043 	 -5.764590 	 -6.954515 
H 	 -1.575091 	 -6.619669 	 -5.654054 
H 	 5.576709 	 2.864573 	 6.293034 
H 	 5.893802 	 3.740084 	 -7.380208 
H 	 5.098345 	 7.469158 	 3.542238 
H 	 4.072019 	 -6.483232 	 2.981633 
H 	 3.119602 	 -4.300657 	 1.593529 
H 	 2.264779 	 -4.828767 	 2.651798 
H 	 5.598057 	 -5.481746 	 -3.183886 
H 	 4.172983 	 -5.111052 	 -3.029534 
H 	 -3.442702 	 -4.121953 	 -0.454016 
H 	 -2.984684 	 -3.633679 	 0.988896 
H 	 -2.758696 	 1.617758 	 -3.062678 
H 	 -3.250306 	 2.184626 	 -1.662595 
H 	 -6.494674 	 -6.933185 	 2.396379 
H 	 -5.540253 	 7.209271 	 1.409242 
H 	 -3.546392 	 1.311726 	 4.931780 
H 	 -3.914586 	 2.800270 	 4.753205 
H 	 -4.612442 	 6.426339 	 -1.340795 
H 	 -5.439325 	 5.558297 	 -2.257645 
H 	 -2.701438 	 -1.484879 	 0.039580 
H 	 -2.044629 	 -0.878429 	 1.371915 
H 	 -1.039759 	 3.656889 	 -6.968404 
H 	 -2.394874 	 4.271690 	 -6.717361 
H 	 -6.166327 	 3.454221 	 -4.701255 
H 	 -6.735247 	 4.951581 	 -4.697766 
H 	 -0.555000 	 3.108380 	 -2.889609 
H 	 -0.501429 	 2.942135 	 -4.385847 
H 	 4.666052 	 4.962211 	 -1.851976 
H 	 5.583524 	 3.797916 	 -2.313683 
H 	 5.635191 	 0.683348 	 4.312968 
H 	 4.823073 	 1.131265 	 3.089817 
H 	 -6.344342 	 -1.037973 	 2.003928 
H 	 -6.459001 	 -2.345189 	 1.310327 
H 	 3.861712 	 -3.965418 	 -0.461301 
H 	 5.190396 	 -3.951729 	 0.471025 
H 	 -6.315403 	 1.619434 	 5.234852 
H 	 -5.456286 	 0.273140 	 5.410800 
H 	 -0.443254 	 -3.480770 	 6.086945 
H 	 0.445239 	 -3.429089 	 -7.432562 
H 	 -3.626436 	 -7.170259 	 1.652186 
H 	 -3.712651 	 -6.480028 	 0.296505 
H 	 4.169519 	 -1.211549 	 2.681509 
H 	 3.660919 	 -0.837467 	 1.290461 
H 	 6.631230 	 5.204584 	 -3.322075 
H 	 5.748893 	 6.374242 	 -3.761790 
H 	 -1.320063 	 -5.143224 	 0.374875 
H 	 0.049116 	 -5.749429 	 0.870239 
H 	 0.784906 	 -3.390096 	 1.618192 
H 	 -0.471504 	 -2.892347 	 0.798517 
H 	 4.670028 	 2.319545 	 -4.340065 
H 	 3.184248 	 1.727918 	 -5.584644 
H 	 -0.881482 	 -0.122236 	 -4.658479 
H 	 -0.070530 	 0.462080 	 -5.820405 
H 	 1.716403 	 6.781149 	 -6.643643 
H 	 0.224973 	 7.163314 	 -6.692071 
H 	 -7.296311 	 -4.052374 	 0.837119 
H 	 6.906923 	 -3.264341 	 -0.335631 
H 	 -6.139763 	 0.855483 	 -3.766405 
H 	 -5.115578 	 2.045084 	 -3.537911 
H 	 7.144330 	 -2.081669 	 -4.226603 
H 	 6.288955 	 -3.285419 	 -4.417323 
H 	 5.584274 	 2.756778 	 1.115941 
H 	 5.023463 	 3.858293 	 0.338694 
H 	 -5.772924 	 -4.695365 	 3.077651 
H 	 -6.555734 	 -5.474065 	 4.159497 
H 	 -2.710015 	 5.599450 	 -1.976728 
H 	 -1.212328 	 5.464854 	 -1.522320 
H 	 7.203516 	 -6.412181 	 -1.569554 
H 	 -7.296904 	 -5.921390 	 -2.919568 
H 	 -7.257267 	 6.188271 	 -1.182031 
H 	 -7.345291 	 7.044191 	 0.109252 
H 	 6.102364 	 0.811190 	 -0.355954 
H 	 5.709687 	 0.453002 	 1.090363 
H 	 3.368146 	 -2.656780 	 7.360622 
H 	 3.167274 	 -4.004733 	 6.488123 
H 	 7.166682 	 -0.606765 	 5.633349 
H 	 5.943611 	 -1.097449 	 6.555224 
H 	 -4.592915 	 -4.869894 	 -2.021461 
H 	 -5.606182 	 -5.201502 	 -0.881804 
H 	 2.441975 	 -1.941425 	 -0.681114 
H 	 2.659039 	 -2.017445 	 -2.217131 
H 	 1.538809 	 -6.268599 	 -1.250866 
H 	 1.567491 	 7.331477 	 -0.391579 
H 	 2.573687 	 0.680995 	 7.037420 
H 	 4.021377 	 0.416030 	 -7.290506 
H 	 4.147198 	 -6.111499 	 -7.029459 
H 	 4.059240 	 7.487255 	 6.985926 
H 	 -1.085081 	 0.729515 	 6.764455 
H 	 -2.071670 	 1.878018 	 6.947758 
H 	 -2.215508 	 -5.665731 	 -1.403155 
H 	 -0.837203 	 -6.373255 	 -1.667569 
H 	 3.125399 	 3.920622 	 -3.766430 
H 	 3.026362 	 5.510590 	 -3.587397 
H 	 0.862902 	 -5.374772 	 -5.853037 
H 	 1.690245 	 -4.104721 	 -5.483281 
H 	 -4.413351 	 -2.568600 	 2.109838 
H 	 -3.431285 	 -3.116230 	 3.210774 
H 	 1.492023 	 2.242908 	 2.157513 
H 	 0.044142 	 2.142384 	 2.657860 
H 	 6.823725 	 5.948711 	 4.309009 
H 	 6.218604 	 6.201909 	 5.642065 
H 	 1.568342 	 3.429298 	 5.392613 
H 	 0.911108 	 3.487669 	 6.713576 
H 	 1.551502 	 6.513922 	 5.638581 
H 	 0.242208 	 6.078297 	 5.145290 
H 	 -6.619049 	 1.152078 	 -6.454141 
H 	 7.165600 	 2.088816 	 -7.021410 
H 	 -6.222831 	 3.516767 	 -2.399030 
H 	 -6.457141 	 4.196212 	 -1.065537 
H 	 -2.130374 	 -3.206403 	 -6.891010 
H 	 -3.407313 	 -3.988549 	 -6.170780 
H 	 4.266122 	 5.211992 	 7.104263 
H 	 3.763150 	 5.351453 	 5.709321 
H 	 2.536410 	 -0.285619 	 -3.530421 
H 	 3.960742 	 -0.870985 	 -3.561320 
H 	 -3.320094 	 0.809946 	 0.736352 
H 	 -4.735105 	 1.252778 	 1.291554 
H 	 0.891945 	 0.124438 	 5.535176 
H 	 0.801894 	 -0.979841 	 6.566947 
H 	 2.010547 	 -7.011406 	 2.134989 
H 	 1.417119 	 7.349599 	 3.400437 
H 	 -1.427551 	 2.715097 	 4.145388 
H 	 -0.384723 	 3.763063 	 4.253676 
H 	 -3.900088 	 0.382291 	 -6.938619 
H 	 -5.003095 	 -0.624112 	 -6.721588 
H 	 6.629963 	 -4.479435 	 4.869170 
H 	 6.337550 	 -6.141701 	 5.000318 
H 	 -5.562628 	 -1.070090 	 -3.080186 
H 	 -5.382050 	 -0.972701 	 -4.572921 
H 	 -5.171360 	 -3.396203 	 -4.528793 
H 	 -5.044854 	 -4.892589 	 -4.904361 
H 	 -4.491941 	 -0.151543 	 -1.634288 
H 	 -5.211086 	 -1.186279 	 -0.760251 
H 	 5.151377 	 4.763810 	 -5.126323 
H 	 4.042250 	 3.781303 	 -5.722280 
H 	 -7.010594 	 -2.395698 	 -5.926888 
H 	 -6.069789 	 -3.300123 	 -6.679186 
H 	 -6.386780 	 3.887105 	 4.420955 
H 	 -5.506674 	 4.397701 	 5.668180 
H 	 2.048757 	 5.327444 	 1.508071 
H 	 0.736440 	 6.067063 	 1.196084 
H 	 -2.630721 	 -2.104774 	 -3.590572 
H 	 -2.508157 	 -2.222235 	 -5.069409 
H 	 -5.570974 	 4.622022 	 -7.094212 
H 	 -4.888449 	 5.902665 	 -7.276821 
H 	 5.901852 	 -5.357084 	 7.170868 
H 	 6.024090 	 -4.230140 	 -6.685733 
H 	 -5.234217 	 -3.427486 	 5.538882 
H 	 -6.221155 	 -2.504177 	 4.687521 
H 	 6.245697 	 -0.027044 	 -6.436373 
H 	 5.601114 	 -1.402944 	 -5.988406 
H 	 1.278886 	 -1.307245 	 1.141693 
H 	 1.722727 	 0.005922 	 0.379344 
H 	 3.079989 	 -2.913131 	 3.710977 
H 	 3.589033 	 -2.273852 	 5.119828 
H 	 2.478803 	 4.610660 	 3.557098 
H 	 3.371461 	 3.904861 	 2.476413 
H 	 2.128712 	 -6.067665 	 6.603526 
H 	 1.571646 	 -5.638219 	 5.258491 
H 	 3.474855 	 2.500770 	 6.112669 
H 	 4.040809 	 2.612526 	 4.740411 
H 	 1.043742 	 -1.872345 	 -5.653089 
H 	 2.451777 	 -2.103365 	 -5.224310 
H 	 6.149779 	 1.951671 	 -4.723137 
H 	 2.195903 	 1.402825 	 -1.439315 
H 	 -0.824581 	 -5.911977 	 5.392929 
H 	 -1.536419 	 -7.299029 	 5.600711 
H 	 -5.081852 	 -6.162131 	 6.895004 
H 	 -6.410643 	 -5.487401 	 6.327348 
H 	 -7.258948 	 1.407167 	 2.865433 
H 	 -7.171947 	 1.223298 	 1.361629 
H 	 4.158088 	 7.541679 	 -2.911582 
H 	 4.304247 	 -6.719849 	 -4.275910 
H 	 2.460118 	 2.488000 	 -0.345885 
O 	 -2.567689 	 -7.327190 	 -4.495052 
O 	 -5.554798 	 3.902394 	 0.520393 
O 	 -0.761507 	 6.780016 	 2.012081 
O 	 -4.716187 	 7.548486 	 -6.593331 
O 	 -1.703962 	 5.885567 	 5.437907 
O 	 -3.604190 	 5.217574 	 3.372494 
O 	 0.617325 	 3.358326 	 -5.967350 
O 	 -1.600603 	 -1.184770 	 3.355843 
O 	 0.566328 	 4.822473 	 -1.338336 
O 	 -0.380115 	 -3.418887 	 4.183150 
O 	 -7.052922 	 -6.773924 	 -5.000156 
O 	 1.068127 	 -0.318652 	 3.907951 
O 	 6.821420 	 -3.044032 	 4.002696 
O 	 -3.485340 	 -0.365270 	 5.325555 
O 	 4.279297 	 -7.012937 	 -1.133552 
O 	 -3.677330 	 -6.903766 	 3.533195 
O 	 -7.635665 	 4.718270 	 2.809744 
O 	 -0.965809 	 2.069469 	 -0.603482 
O 	 1.733339 	 1.109385 	 -3.049191 
O 	 5.308685 	 0.279601 	 -1.913382 
O 	 2.147672 	 -5.324777 	 -2.684181 
O 	 6.221502 	 -2.432614 	 -1.717960 
O 	 -3.159029 	 4.611824 	 -4.750723 
O 	 -0.870157 	 -6.272777 	 -6.309531 
O 	 6.340808 	 3.351214 	 6.714642 
O 	 5.045881 	 -6.641466 	 2.925166 
O 	 2.486068 	 -3.981517 	 2.268319 
O 	 4.930953 	 -4.942812 	 -3.636050 
O 	 -2.665664 	 -3.693685 	 0.009084 
O 	 -3.538782 	 1.724921 	 -2.454889 
O 	 -6.446475 	 7.160784 	 1.802086 
O 	 -3.214166 	 2.167270 	 4.631019 
O 	 -4.739594 	 6.254121 	 -2.305009 
O 	 -2.382909 	 -0.642667 	 0.447018 
O 	 -1.905010 	 3.881466 	 -7.430736 
O 	 -6.098479 	 4.369556 	 -5.206504 
O 	 -1.118054 	 3.111683 	 -3.655186 
O 	 5.554805 	 4.576109 	 -1.702290 
O 	 5.072407 	 1.425265 	 3.952259 
O 	 -5.863060 	 -1.585478 	 1.362080 
O 	 4.374228 	 -4.457963 	 0.248094 
O 	 -6.413016 	 0.652905 	 5.438777 
O 	 -0.310487 	 -3.046489 	 6.958231 
O 	 -3.975833 	 -7.305056 	 0.736796 
O 	 4.466568 	 -0.728581 	 1.910685 
O 	 6.491827 	 5.816811 	 -4.133582 
O 	 -0.813490 	 -5.433266 	 1.149336 
O 	 0.280822 	 -2.634980 	 1.323212 
O 	 3.008485 	 2.432498 	 -4.921437 
O 	 -0.021326 	 -0.183397 	 -5.070331 
O 	 0.835152 	 6.408813 	 -6.828815 
O 	 6.983515 	 -3.376267 	 0.668212 
O 	 -6.043894 	 1.882447 	 -3.645098 
O 	 6.527644 	 -2.476749 	 -4.852193 
O 	 5.084318 	 3.584230 	 1.221149 
O 	 -5.942740 	 -5.610933 	 3.434264 
O 	 -2.123256 	 5.339536 	 -1.170071 
O 	 7.157767 	 -5.597351 	 -2.109646 
O 	 7.130021 	 6.926406 	 -0.755798 
O 	 6.185175 	 1.131637 	 0.605634 
O 	 3.788892 	 -3.273863 	 6.708633 
O 	 6.229239 	 -0.970657 	 5.639331 
O 	 -4.655780 	 -5.276817 	 -1.123098 
O 	 2.589804 	 -2.618866 	 -1.419088 
O 	 1.072664 	 -6.776930 	 -0.536971 
O 	 3.472268 	 1.032002 	 7.078061 
O 	 3.554721 	 -6.592356 	 7.260107 
O 	 -1.922902 	 0.969650 	 7.241880 
O 	 -1.696031 	 -6.151545 	 -2.055041 
O 	 2.877094 	 4.636811 	 -3.179878 
O 	 1.750441 	 -5.114047 	 -5.572271 
O 	 -3.905270 	 -3.373292 	 2.393524 
O 	 0.702270 	 1.658036 	 2.088427 
O 	 6.829589 	 6.631203 	 4.985495 
O 	 0.672619 	 3.549778 	 5.790108 
O 	 1.173998 	 6.097421 	 4.824867 
O 	 -7.585777 	 1.395481 	 -6.353545 
O 	 -6.567042 	 4.352810 	 -2.052168 
O 	 -3.074975 	 -3.208370 	 -6.604541 
O 	 4.070763 	 5.865628 	 6.447526 
O 	 3.035989 	 -1.127520 	 -3.723898 
O 	 -3.925159 	 1.570165 	 0.795582 
O 	 0.693609 	 -0.012765 	 6.539803 
O 	 1.967891 	 -6.791370 	 3.089474 
O 	 -0.922083 	 3.283303 	 3.530275 
O 	 -4.657876 	 0.236621 	 -6.418390 
O 	 6.799047 	 -5.348788 	 5.391781 
O 	 -6.102301 	 -0.838673 	 -3.908830 
O 	 -4.920168 	 -4.258172 	 -4.198652 
O 	 -4.789200 	 -1.098472 	 -1.677660 
O 	 4.646573 	 4.540122 	 -5.943607 
O 	 -6.074626 	 -2.449426 	 -6.237396 
O 	 -5.562471 	 3.739690 	 4.924835 
O 	 1.638964 	 6.002810 	 0.951515 
O 	 -2.353128 	 -1.590695 	 -4.345801 
O 	 -5.265417 	 5.141319 	 7.067280 
O 	 5.954252 	 -5.170907 	 -6.785717 
O 	 -5.366362 	 -2.514529 	 5.175810 
O 	 5.563738 	 -0.695722 	 -6.676433 
O 	 2.011059 	 -0.918253 	 0.648645 
O 	 3.364865 	 -2.081086 	 4.156811 
O 	 2.454507 	 4.045806 	 2.747849 
O 	 1.308714 	 -5.639471 	 6.204207 
O 	 3.499696 	 3.131750 	 5.380140 
O 	 1.807070 	 -2.449985 	 -5.876233 
O 	 5.615406 	 2.371328 	 -3.988243 
O 	 -1.721750 	 -6.322304 	 5.441796 
O 	 -5.445640 	 -5.288151 	 6.582229 
O 	 -6.591931 	 1.161464 	 2.229824 
O 	 4.113638 	 7.260664 	 -3.916305 
O 	 2.610824 	 1.517353 	 -0.527697 
K 	 -2.434708 	 4.142337 	 1.096545 
