333
conformation = 12
H 	 -2.962137 	 6.833623 	 -4.264478 
H 	 -2.495513 	 -6.788081 	 -3.670298 
H 	 -6.397656 	 4.144720 	 0.943208 
H 	 -5.318220 	 3.070640 	 0.376789 
H 	 -0.668880 	 7.035208 	 3.256221 
H 	 -1.066479 	 -7.087552 	 1.989924 
H 	 -5.366206 	 -7.104708 	 -5.882361 
H 	 -3.829950 	 -6.956607 	 -5.844806 
H 	 -1.891652 	 5.363413 	 6.041993 
H 	 -2.407328 	 5.720160 	 4.663965 
H 	 -4.313144 	 4.950835 	 3.890071 
H 	 -3.824679 	 6.327495 	 3.404219 
H 	 1.500674 	 3.258815 	 -5.925697 
H 	 1.019856 	 4.664353 	 -6.207446 
H 	 -2.348279 	 -0.792317 	 3.978585 
H 	 -0.832573 	 -0.414867 	 3.485893 
H 	 1.247525 	 5.056698 	 -2.086390 
H 	 0.773795 	 5.793963 	 -0.778990 
H 	 -0.816460 	 -2.755364 	 3.608189 
H 	 0.482589 	 -3.604936 	 3.873327 
H 	 -7.503391 	 -7.104696 	 -4.680412 
H 	 7.092244 	 -5.896337 	 -5.598065 
H 	 1.664884 	 -0.824629 	 3.937972 
H 	 1.051502 	 0.482703 	 3.127553 
H 	 6.360815 	 -2.686786 	 3.069067 
H 	 6.228013 	 -2.195455 	 4.578871 
H 	 -4.210599 	 -1.252169 	 5.447552 
H 	 -3.175957 	 -0.147473 	 6.250262 
H 	 5.347367 	 -7.127760 	 -0.709142 
H 	 4.178849 	 -6.180024 	 -0.468142 
H 	 -4.561120 	 -6.412366 	 3.486755 
H 	 -3.248163 	 -6.529237 	 4.242764 
H 	 -7.573180 	 5.837409 	 2.169177 
H 	 6.383746 	 4.581250 	 2.069483 
H 	 -0.450921 	 2.069566 	 0.065777 
H 	 -1.682270 	 1.356749 	 -0.424312 
H 	 2.198918 	 1.912680 	 -4.117516 
H 	 0.836206 	 1.095583 	 -3.797626 
H 	 4.065258 	 0.728093 	 -1.750770 
H 	 5.181863 	 1.134393 	 -2.716262 
H 	 1.826805 	 -4.791212 	 -3.880739 
H 	 2.164207 	 -4.172455 	 -2.444055 
H 	 5.509640 	 -1.552054 	 -2.035279 
H 	 5.678660 	 -3.064170 	 -2.295706 
H 	 -2.963926 	 4.345178 	 -4.072981 
H 	 -4.307494 	 4.762445 	 -4.782874 
H 	 -1.403754 	 -6.245001 	 -7.387764 
H 	 -1.523644 	 -6.424308 	 -5.831763 
H 	 5.821534 	 3.852246 	 6.004720 
H 	 5.380128 	 3.962636 	 -7.459194 
H 	 5.300123 	 7.583847 	 3.102891 
H 	 4.154393 	 -6.327425 	 2.572935 
H 	 2.996875 	 -3.991947 	 1.429322 
H 	 2.141983 	 -4.795993 	 2.430705 
H 	 5.396015 	 -5.274598 	 -3.013663 
H 	 3.993898 	 -4.819027 	 -3.533394 
H 	 -3.189151 	 -3.621536 	 -0.807581 
H 	 -3.251491 	 -3.192921 	 0.711261 
H 	 -3.004746 	 1.986406 	 -3.034986 
H 	 -3.351303 	 2.510386 	 -1.592243 
H 	 -6.576488 	 -6.706884 	 2.235950 
H 	 -5.750370 	 7.216421 	 1.463806 
H 	 -3.415525 	 1.374460 	 4.319021 
H 	 -4.131109 	 2.721917 	 4.462785 
H 	 -4.825360 	 6.778449 	 -1.472631 
H 	 -5.126245 	 5.838112 	 -2.592288 
H 	 -2.477842 	 -1.328261 	 0.083729 
H 	 -1.997808 	 -0.531607 	 1.448642 
H 	 -1.475272 	 3.835540 	 -6.795778 
H 	 -2.932331 	 4.157091 	 -6.850239 
H 	 -6.391620 	 3.505049 	 -5.100027 
H 	 -7.024356 	 5.008145 	 -5.041476 
H 	 -0.860579 	 3.280239 	 -2.829882 
H 	 -0.522684 	 3.580697 	 -4.321834 
H 	 4.532691 	 4.582534 	 -2.114127 
H 	 5.904581 	 3.948248 	 -2.027148 
H 	 4.643454 	 1.240985 	 4.667228 
H 	 4.749916 	 0.929255 	 3.205181 
H 	 -5.865310 	 -0.173137 	 1.370620 
H 	 -6.727249 	 -1.404096 	 1.303730 
H 	 3.626779 	 -3.539896 	 -0.677361 
H 	 4.904578 	 -3.799005 	 0.290786 
H 	 -6.435948 	 2.017860 	 5.470077 
H 	 -5.747626 	 0.620834 	 5.681686 
H 	 -0.433163 	 -2.496287 	 5.827452 
H 	 0.054208 	 -3.468808 	 6.934891 
H 	 -3.710936 	 -6.868241 	 1.249203 
H 	 -4.230319 	 -6.601789 	 -0.194709 
H 	 4.610501 	 -1.201583 	 2.784986 
H 	 3.749699 	 -0.763316 	 1.669258 
H 	 6.703916 	 5.821308 	 -3.108116 
H 	 5.551022 	 6.515886 	 -4.071127 
H 	 -1.750879 	 -4.782413 	 0.753048 
H 	 -0.490047 	 -5.412035 	 -0.059994 
H 	 0.806964 	 -3.162831 	 1.561371 
H 	 -0.468001 	 -3.182275 	 0.756093 
H 	 4.547603 	 2.512005 	 -4.285698 
H 	 3.191151 	 2.087946 	 -5.844601 
H 	 -0.797122 	 -0.742568 	 -4.821307 
H 	 -0.868386 	 0.520278 	 -5.717345 
H 	 1.543362 	 7.085129 	 -6.898580 
H 	 0.069450 	 6.975506 	 -6.478605 
H 	 -7.620900 	 -3.929061 	 0.308433 
H 	 6.535641 	 -2.568901 	 -0.020147 
H 	 -6.380201 	 1.225074 	 -3.786508 
H 	 -5.113671 	 1.875535 	 -3.183993 
H 	 7.068554 	 -1.764502 	 -4.481059 
H 	 5.842675 	 -2.826335 	 -4.317995 
H 	 5.090356 	 2.899947 	 0.913598 
H 	 4.965326 	 4.234249 	 0.070633 
H 	 -5.550730 	 -4.545135 	 3.606913 
H 	 -6.871967 	 -5.324403 	 4.177233 
H 	 -2.600326 	 5.907724 	 -1.966580 
H 	 -1.095048 	 5.271081 	 -1.567339 
H 	 7.221867 	 -6.410353 	 -2.131830 
H 	 -7.329206 	 -5.281194 	 -3.132920 
H 	 6.711855 	 6.153787 	 -0.857937 
H 	 -7.489493 	 7.269896 	 0.115429 
H 	 5.970425 	 1.073294 	 -0.505212 
H 	 5.453573 	 0.447785 	 0.801614 
H 	 3.086531 	 -2.749247 	 7.126524 
H 	 3.568727 	 -4.215528 	 6.526666 
H 	 6.854037 	 -0.178541 	 5.568162 
H 	 5.950249 	 -0.896163 	 6.575040 
H 	 -4.222837 	 -5.343367 	 -2.141276 
H 	 -5.601368 	 -4.976635 	 -1.369797 
H 	 2.293698 	 -1.933519 	 -0.821235 
H 	 2.786072 	 -1.997370 	 -2.314689 
H 	 1.478534 	 -5.837453 	 -1.521908 
H 	 1.566101 	 -6.955826 	 -0.432160 
H 	 2.561830 	 0.730646 	 6.681911 
H 	 4.029584 	 0.705991 	 7.246779 
H 	 4.306634 	 -5.893593 	 -7.406365 
H 	 3.673351 	 -6.859366 	 6.425438 
H 	 -0.984370 	 0.716864 	 6.691421 
H 	 -2.250781 	 1.698248 	 6.737510 
H 	 -2.187284 	 -5.465408 	 -1.500537 
H 	 -1.287688 	 -6.616007 	 -1.920628 
H 	 2.284291 	 4.168622 	 -3.851186 
H 	 2.899690 	 5.636471 	 -3.644597 
H 	 0.797016 	 -5.302816 	 -5.929627 
H 	 1.441495 	 -3.875212 	 -5.635273 
H 	 -4.521105 	 -2.508557 	 2.316061 
H 	 -3.248371 	 -2.728696 	 2.935606 
H 	 1.017381 	 2.654197 	 1.903050 
H 	 -0.245397 	 2.274819 	 2.568309 
H 	 6.938392 	 5.904650 	 4.283600 
H 	 6.678040 	 6.406165 	 5.765489 
H 	 1.575875 	 3.438498 	 5.571704 
H 	 0.441284 	 3.682415 	 6.577570 
H 	 1.659835 	 5.970589 	 5.434594 
H 	 0.419069 	 5.668554 	 4.789961 
H 	 -6.785105 	 1.264904 	 -6.352131 
H 	 7.126362 	 2.360962 	 -6.938474 
H 	 -6.414573 	 3.592770 	 -2.574367 
H 	 -6.393396 	 4.372140 	 -1.218375 
H 	 -2.177123 	 -2.906282 	 -7.400886 
H 	 -2.717915 	 -3.842899 	 -6.305545 
H 	 4.084593 	 5.805643 	 7.320723 
H 	 4.091901 	 5.082457 	 6.028316 
H 	 2.376695 	 -0.042556 	 -3.520869 
H 	 3.675821 	 -0.803190 	 -4.010712 
H 	 -3.583426 	 1.192646 	 0.744127 
H 	 -4.581485 	 1.813727 	 1.873681 
H 	 0.729814 	 0.088482 	 5.624943 
H 	 0.687624 	 -0.676287 	 6.907981 
H 	 1.616622 	 7.580103 	 2.390414 
H 	 2.057640 	 -6.946384 	 3.835587 
H 	 -1.888121 	 2.823699 	 3.593361 
H 	 -0.570772 	 3.242890 	 4.350934 
H 	 -4.026199 	 0.504828 	 -6.248884 
H 	 -4.825136 	 -0.632337 	 -6.766705 
H 	 6.297979 	 -4.530660 	 4.666651 
H 	 6.119487 	 -6.141938 	 4.664343 
H 	 -5.646557 	 -0.706078 	 -3.513509 
H 	 -5.722756 	 -0.540576 	 -4.974002 
H 	 -5.308491 	 -3.806231 	 -4.875504 
H 	 -5.179957 	 -5.218002 	 -4.240733 
H 	 -4.081210 	 -0.101220 	 -1.780010 
H 	 -4.959653 	 -0.789424 	 -0.779927 
H 	 5.272872 	 4.907541 	 -5.291548 
H 	 3.848624 	 4.241537 	 -5.479113 
H 	 -7.000696 	 -2.857799 	 -6.243656 
H 	 -5.791371 	 -2.861845 	 -7.284526 
H 	 -6.539297 	 4.160043 	 4.161441 
H 	 -5.759393 	 4.507439 	 5.561295 
H 	 1.728321 	 5.497605 	 1.212238 
H 	 0.288271 	 6.264281 	 1.400222 
H 	 -2.352513 	 -2.084770 	 -3.903384 
H 	 -2.771365 	 -1.815631 	 -5.297936 
H 	 -5.556163 	 5.135041 	 -6.991656 
H 	 -4.984738 	 6.193972 	 7.020501 
H 	 6.514219 	 -4.662611 	 -7.459219 
H 	 5.732294 	 -4.255227 	 -6.241729 
H 	 -5.347532 	 -3.296711 	 5.346228 
H 	 -6.460261 	 -2.464130 	 4.643821 
H 	 6.118443 	 0.351347 	 -6.493864 
H 	 5.486792 	 -1.085401 	 -6.110699 
H 	 1.145235 	 -1.022633 	 0.953749 
H 	 1.936023 	 0.255472 	 0.271620 
H 	 2.877196 	 -2.624130 	 3.458688 
H 	 3.396526 	 -2.285895 	 4.905064 
H 	 2.432883 	 4.291847 	 3.509101 
H 	 3.352412 	 4.122091 	 2.349283 
H 	 1.926477 	 -5.696556 	 6.505069 
H 	 1.656368 	 -5.563656 	 4.946733 
H 	 3.551062 	 2.789994 	 5.906131 
H 	 3.928719 	 3.077092 	 4.388410 
H 	 0.912754 	 -1.528348 	 -6.229856 
H 	 2.058095 	 -1.595896 	 -5.206618 
H 	 6.128829 	 2.241694 	 -4.421284 
H 	 2.155477 	 1.816132 	 -1.580721 
H 	 -1.012153 	 -5.748821 	 5.134218 
H 	 -1.794795 	 -7.103086 	 5.413193 
H 	 -4.925371 	 -5.270997 	 6.999480 
H 	 -6.130463 	 -5.715319 	 6.009823 
H 	 -6.672418 	 1.147942 	 3.076531 
H 	 -7.550134 	 1.395703 	 1.767019 
H 	 3.955042 	 -6.916303 	 -3.122930 
H 	 3.782031 	 -6.779370 	 -4.575703 
H 	 3.105339 	 2.432598 	 -0.414028 
O 	 -2.639732 	 7.701921 	 -4.553519 
O 	 -5.745916 	 3.991254 	 0.257834 
O 	 -0.967991 	 6.863445 	 2.305850 
O 	 -4.601171 	 -7.100278 	 -6.454184 
O 	 -1.682449 	 5.959295 	 5.277963 
O 	 -3.670245 	 5.339267 	 3.296232 
O 	 0.681442 	 3.733326 	 -6.140502 
O 	 -1.683982 	 -0.887110 	 3.231185 
O 	 0.551841 	 5.042441 	 -1.410345 
O 	 -0.386965 	 -3.377661 	 4.230744 
O 	 -7.050942 	 -6.345199 	 -5.129413 
O 	 0.996846 	 -0.119071 	 3.925971 
O 	 6.587605 	 -2.905461 	 4.007365 
O 	 -3.600349 	 -0.453015 	 5.403561 
O 	 4.381322 	 -7.005784 	 -0.915818 
O 	 -3.680197 	 -6.880654 	 3.437846 
O 	 7.148858 	 4.999636 	 2.639911 
O 	 -1.151087 	 2.155460 	 -0.591743 
O 	 1.680968 	 1.321119 	 -3.342949 
O 	 4.954754 	 0.449224 	 -2.096147 
O 	 2.242931 	 -5.005960 	 -2.981497 
O 	 6.151262 	 -2.253341 	 -2.080408 
O 	 -3.356763 	 4.766979 	 -4.896225 
O 	 -1.006560 	 -5.975627 	 -6.551916 
O 	 6.089955 	 3.582771 	 6.910260 
O 	 5.105462 	 -6.374579 	 2.868200 
O 	 2.362769 	 -3.836143 	 2.231868 
O 	 4.991951 	 -4.724587 	 -3.723727 
O 	 -2.646907 	 -3.336146 	 -0.028967 
O 	 -3.589514 	 1.829095 	 -2.235562 
O 	 -6.697935 	 7.352734 	 1.776142 
O 	 -3.238459 	 2.314001 	 4.500036 
O 	 -4.517154 	 6.580426 	 -2.382185 
O 	 -2.332551 	 -0.432033 	 0.482166 
O 	 -2.221321 	 3.927425 	 -7.472709 
O 	 -6.207915 	 4.505267 	 -5.324764 
O 	 -1.208174 	 3.263064 	 -3.710548 
O 	 5.319500 	 4.578396 	 -1.532879 
O 	 5.118665 	 1.560069 	 3.826075 
O 	 -5.806609 	 -1.148301 	 1.304690 
O 	 4.016276 	 -4.141663 	 -0.002560 
O 	 -6.600774 	 1.062636 	 5.331080 
O 	 -0.360911 	 -2.561589 	 6.850204 
O 	 -4.137280 	 7.606114 	 0.488794 
O 	 4.677735 	 -0.655118 	 1.979210 
O 	 6.385759 	 6.004065 	 -4.054277 
O 	 -0.892719 	 -5.276962 	 0.859334 
O 	 0.127394 	 -2.538356 	 1.183534 
O 	 3.009755 	 2.599560 	 -5.029347 
O 	 -0.189940 	 -0.032158 	 -5.229773 
O 	 0.825887 	 6.438155 	 -6.785436 
O 	 6.829027 	 -3.203008 	 0.669601 
O 	 -5.888709 	 2.117899 	 -3.692163 
O 	 6.329843 	 -2.297749 	 -4.962942 
O 	 4.882189 	 3.866089 	 0.991285 
O 	 -6.162802 	 -5.320128 	 3.428463 
O 	 -2.050492 	 5.317778 	 -1.338798 
O 	 -7.657668 	 -5.423080 	 -2.216018 
O 	 7.094037 	 7.074107 	 -0.831692 
O 	 5.950461 	 1.234512 	 0.472630 
O 	 3.639333 	 -3.239350 	 6.455258 
O 	 6.184823 	 -0.883825 	 5.586834 
O 	 -4.618487 	 -4.984748 	 -1.328248 
O 	 2.513906 	 -2.607706 	 -1.572235 
O 	 0.950348 	 -6.433070 	 -0.920174 
O 	 3.310538 	 1.318531 	 6.929174 
O 	 3.457041 	 -6.311092 	 7.227684 
O 	 -1.921253 	 0.828211 	 7.001733 
O 	 -1.873814 	 -5.922287 	 -2.275831 
O 	 2.542402 	 4.833596 	 -3.181701 
O 	 1.574617 	 -4.858446 	 -5.603762 
O 	 -3.843398 	 -3.197747 	 2.347348 
O 	 0.381501 	 1.896270 	 1.928112 
O 	 6.958081 	 6.690701 	 4.869046 
O 	 0.607123 	 3.676186 	 5.630711 
O 	 1.104344 	 6.357600 	 4.723976 
O 	 7.220076 	 1.670747 	 -6.246729 
O 	 -6.605382 	 4.446025 	 -2.160429 
O 	 -2.970931 	 -3.039372 	 -6.761260 
O 	 4.107978 	 5.971162 	 6.383726 
O 	 2.741204 	 -0.995083 	 -3.821009 
O 	 -4.086531 	 1.983458 	 1.025201 
O 	 0.806235 	 0.227287 	 6.578361 
O 	 1.847186 	 -6.507935 	 2.975822 
O 	 -1.102882 	 3.413700 	 3.482360 
O 	 -4.881549 	 0.327018 	 -6.584185 
O 	 6.597618 	 -5.369435 	 5.082234 
O 	 -6.346175 	 -0.671792 	 -4.216767 
O 	 -4.817611 	 -4.334231 	 -4.220564 
O 	 -4.726680 	 -0.845382 	 -1.758731 
O 	 4.515177 	 4.849385 	 -5.938273 
O 	 -6.055447 	 -2.592212 	 -6.398416 
O 	 -5.786532 	 3.892201 	 4.717912 
O 	 1.269133 	 6.338086 	 1.007034 
O 	 -2.424215 	 -1.363146 	 -4.531237 
O 	 -5.223606 	 5.215598 	 6.997943 
O 	 6.081329 	 -5.017266 	 -6.687511 
O 	 -5.530142 	 -2.398065 	 4.980619 
O 	 5.441809 	 -0.327580 	 -6.748695 
O 	 1.990952 	 -0.671712 	 0.585845 
O 	 3.101701 	 -1.878158 	 4.039251 
O 	 2.426183 	 4.191923 	 2.532801 
O 	 1.218937 	 -5.408542 	 5.824705 
O 	 3.481678 	 3.484913 	 5.177328 
O 	 1.545731 	 -2.139398 	 -5.836903 
O 	 5.403202 	 2.478447 	 -3.791483 
O 	 -1.891657 	 -6.117332 	 5.366295 
O 	 -5.543262 	 -4.960422 	 6.301182 
O 	 -6.643969 	 1.333888 	 2.145636 
O 	 3.928674 	 7.409769 	 -3.919109 
O 	 2.715170 	 1.613291 	 -0.818062 
K 	 -2.463208 	 4.375501 	 0.984636 
