333
conformation = 35
H 	 -2.646079 	 6.758334 	 -4.492782 
H 	 -2.770735 	 -6.647549 	 -3.748835 
H 	 -6.213296 	 3.782724 	 1.068007 
H 	 -5.084230 	 3.323823 	 0.239938 
H 	 -0.821441 	 6.801917 	 3.062150 
H 	 -1.184152 	 -7.089717 	 1.960231 
H 	 -5.352099 	 -6.935172 	 -5.880963 
H 	 -3.824077 	 -7.107064 	 -6.062489 
H 	 -1.724959 	 5.482496 	 6.072133 
H 	 -2.283009 	 5.534648 	 4.598352 
H 	 -4.486312 	 4.914231 	 3.642767 
H 	 -3.908268 	 6.311632 	 3.378933 
H 	 1.376313 	 3.174311 	 -5.598082 
H 	 0.868204 	 4.582164 	 -6.165638 
H 	 -2.263629 	 -0.924634 	 3.963201 
H 	 -0.808414 	 -0.536899 	 3.462204 
H 	 1.193258 	 5.219999 	 -2.165253 
H 	 0.743032 	 5.783346 	 -0.861603 
H 	 -0.762627 	 -2.598755 	 3.531506 
H 	 0.491384 	 -3.454529 	 3.829133 
H 	 -7.650791 	 -7.171753 	 -4.813903 
H 	 7.165096 	 -5.894820 	 -5.655647 
H 	 1.847215 	 -0.667926 	 3.857930 
H 	 0.998818 	 0.505062 	 3.126827 
H 	 6.345095 	 -2.737131 	 3.023166 
H 	 6.437809 	 -2.095173 	 4.527146 
H 	 -4.196601 	 -0.987203 	 5.677998 
H 	 -2.975870 	 0.007218 	 5.973402 
H 	 5.241784 	 7.673554 	 -1.069976 
H 	 4.288642 	 -6.064162 	 -0.570347 
H 	 -4.497933 	 -6.237277 	 3.461596 
H 	 -2.980257 	 -6.368224 	 3.877434 
H 	 -7.451250 	 5.866320 	 2.336471 
H 	 6.401419 	 4.593714 	 2.182944 
H 	 -0.356250 	 2.385300 	 -0.064114 
H 	 -1.325914 	 1.238467 	 -0.617438 
H 	 2.181107 	 1.745069 	 -4.151027 
H 	 0.811877 	 0.953984 	 -3.570119 
H 	 4.177661 	 0.701437 	 -1.800217 
H 	 5.266586 	 1.092916 	 -2.894392 
H 	 1.855173 	 -5.080380 	 -3.836907 
H 	 2.140049 	 -4.151830 	 -2.559477 
H 	 5.517953 	 -1.463701 	 -2.121214 
H 	 5.584459 	 -3.048857 	 -2.252660 
H 	 -2.917139 	 4.168725 	 -4.226502 
H 	 -4.307678 	 4.727396 	 -4.916622 
H 	 -1.487665 	 -6.306142 	 -7.328216 
H 	 -1.482385 	 -6.406430 	 -5.787147 
H 	 5.733287 	 3.544652 	 5.890922 
H 	 5.472287 	 3.962482 	 -7.515141 
H 	 4.981796 	 7.608649 	 3.171095 
H 	 4.196473 	 -6.355688 	 2.384710 
H 	 3.013840 	 -3.782378 	 1.426752 
H 	 2.269738 	 -4.780485 	 2.321904 
H 	 5.371342 	 -5.095174 	 -2.927135 
H 	 4.033220 	 -4.671443 	 -3.486869 
H 	 -3.396151 	 -3.527868 	 -0.700335 
H 	 -3.169019 	 -3.444407 	 0.822324 
H 	 -2.860664 	 1.806745 	 -2.978765 
H 	 -3.457346 	 2.552615 	 -1.740932 
H 	 -6.642619 	 -6.751263 	 2.378300 
H 	 -5.761914 	 7.385642 	 1.270582 
H 	 -3.472668 	 1.354752 	 4.562186 
H 	 -4.037568 	 2.841748 	 4.686897 
H 	 -4.700427 	 6.551439 	 -1.468481 
H 	 -5.218946 	 5.710532 	 -2.581453 
H 	 -2.824935 	 -1.224427 	 -0.013329 
H 	 -2.159563 	 -0.781053 	 1.266135 
H 	 -1.315465 	 3.722798 	 -7.155955 
H 	 -2.726034 	 4.139239 	 -6.746509 
H 	 -6.353201 	 3.672956 	 -5.002570 
H 	 -7.023521 	 4.982112 	 -5.195873 
H 	 -0.633673 	 3.018714 	 -2.992934 
H 	 -0.513051 	 3.648171 	 -4.387946 
H 	 4.534761 	 4.836444 	 -2.062731 
H 	 5.751324 	 3.839955 	 -2.118715 
H 	 4.988626 	 1.027620 	 4.557620 
H 	 4.790074 	 0.992021 	 3.042536 
H 	 -5.975222 	 -0.308238 	 1.553561 
H 	 -6.814848 	 -1.535009 	 1.146649 
H 	 3.842953 	 -3.404633 	 -0.517636 
H 	 5.047901 	 -4.130844 	 0.268099 
H 	 -6.360577 	 1.922737 	 5.364303 
H 	 -5.786755 	 0.513050 	 5.597522 
H 	 -0.287773 	 -2.716190 	 5.862993 
H 	 -0.006456 	 -3.487999 	 7.193568 
H 	 -3.628731 	 -6.836642 	 1.279550 
H 	 -4.210600 	 -6.451527 	 -0.100111 
H 	 4.430358 	 -0.954701 	 2.798195 
H 	 3.671783 	 -0.619824 	 1.492040 
H 	 6.558055 	 5.793175 	 -3.237954 
H 	 5.575112 	 6.492408 	 -4.035129 
H 	 -1.623522 	 -4.686206 	 0.544436 
H 	 -0.318724 	 -5.516888 	 0.158949 
H 	 0.945068 	 -3.155330 	 1.222523 
H 	 -0.625135 	 -2.967969 	 0.849994 
H 	 4.610346 	 2.467042 	 -4.499735 
H 	 3.050240 	 2.206244 	 -5.957688 
H 	 -0.918052 	 -0.670301 	 -5.173398 
H 	 -0.438658 	 0.571606 	 -5.930937 
H 	 1.537511 	 7.115812 	 -6.967550 
H 	 0.005977 	 7.075114 	 -6.924377 
H 	 -7.650536 	 -4.104046 	 0.363281 
H 	 6.662211 	 -2.866308 	 -0.312519 
H 	 -6.441476 	 1.296867 	 -3.973512 
H 	 -5.209901 	 1.810175 	 -3.056770 
H 	 7.049175 	 -1.864146 	 -4.434418 
H 	 5.933092 	 -2.873260 	 -4.361531 
H 	 5.227356 	 2.893261 	 0.712798 
H 	 5.195193 	 4.363237 	 0.165219 
H 	 -5.689728 	 -4.527105 	 3.360377 
H 	 -6.894311 	 -5.313730 	 3.925615 
H 	 -2.489427 	 5.967601 	 -1.936163 
H 	 -1.215318 	 5.188278 	 -1.735216 
H 	 7.166157 	 -6.403398 	 -2.088456 
H 	 -7.235610 	 -5.288883 	 -3.073105 
H 	 6.679023 	 6.256547 	 -1.036905 
H 	 -7.527817 	 7.127594 	 0.036189 
H 	 5.826873 	 1.021186 	 -0.487596 
H 	 5.540872 	 0.588752 	 0.988300 
H 	 3.394980 	 -2.780294 	 7.276796 
H 	 3.329598 	 -4.085756 	 6.486197 
H 	 6.895771 	 -0.197063 	 5.461490 
H 	 5.805225 	 -0.902431 	 6.448745 
H 	 -4.569639 	 -5.194623 	 -2.265664 
H 	 -5.583064 	 -5.159542 	 -1.215057 
H 	 2.037954 	 -1.983888 	 -0.972407 
H 	 2.545140 	 -2.000628 	 -2.401652 
H 	 1.518793 	 -6.449532 	 -1.647754 
H 	 1.522942 	 -6.988646 	 -0.159577 
H 	 2.459131 	 0.819038 	 6.854631 
H 	 4.044264 	 0.581010 	 6.940130 
H 	 4.242165 	 -5.999766 	 -7.287471 
H 	 3.781705 	 -7.182187 	 6.824654 
H 	 -0.996856 	 0.871352 	 6.917737 
H 	 -2.049295 	 1.912088 	 6.826296 
H 	 -2.155054 	 -5.396610 	 -1.528279 
H 	 -1.158028 	 -6.534202 	 -1.880856 
H 	 2.505450 	 4.050494 	 -3.868910 
H 	 2.808854 	 5.615928 	 -3.764812 
H 	 0.780348 	 -5.316954 	 -5.978460 
H 	 1.481299 	 -3.943667 	 -5.971462 
H 	 -4.578621 	 -2.453981 	 2.209946 
H 	 -3.087343 	 -2.871363 	 2.745781 
H 	 1.254866 	 2.412705 	 1.951583 
H 	 -0.219076 	 2.421734 	 2.408541 
H 	 6.918092 	 5.859404 	 4.372957 
H 	 6.560832 	 6.465553 	 5.688629 
H 	 1.569900 	 3.639911 	 5.600074 
H 	 0.375908 	 3.839676 	 6.541751 
H 	 1.613827 	 6.049180 	 5.464555 
H 	 0.232450 	 5.849287 	 4.871296 
H 	 -6.725153 	 1.381135 	 -6.511728 
H 	 6.982449 	 2.165943 	 -7.138342 
H 	 -6.916902 	 3.689047 	 -2.644466 
H 	 -6.225369 	 4.125359 	 -1.257288 
H 	 -2.370752 	 -3.058562 	 -7.453957 
H 	 -2.942048 	 -3.744006 	 -6.076833 
H 	 3.988789 	 5.688308 	 7.279467 
H 	 4.025972 	 5.175582 	 5.756712 
H 	 2.314422 	 -0.077239 	 -3.697054 
H 	 3.713437 	 -0.735278 	 -3.668318 
H 	 -3.555210 	 1.087819 	 0.606023 
H 	 -4.553878 	 1.681019 	 1.655145 
H 	 0.789740 	 0.108046 	 5.455515 
H 	 0.419076 	 -0.689226 	 6.751292 
H 	 1.842708 	 7.587527 	 2.337650 
H 	 1.668785 	 -7.068637 	 3.769281 
H 	 -1.928596 	 3.131997 	 3.804567 
H 	 -0.574725 	 3.502342 	 4.242147 
H 	 -3.856277 	 0.675252 	 -6.652477 
H 	 -4.843987 	 -0.594251 	 -6.791550 
H 	 6.421466 	 -4.425541 	 4.727087 
H 	 6.145755 	 -5.991687 	 4.670535 
H 	 -5.817336 	 -0.877023 	 -3.342692 
H 	 -5.515688 	 -0.455365 	 -4.808645 
H 	 -5.399149 	 -3.692774 	 -4.954885 
H 	 -5.111196 	 -5.160614 	 -4.491540 
H 	 -4.332217 	 -0.005616 	 -1.875215 
H 	 -5.347261 	 -0.785705 	 -1.048321 
H 	 5.334513 	 5.114036 	 -5.567071 
H 	 4.138828 	 4.117042 	 -5.400872 
H 	 -7.068055 	 -2.653122 	 -6.280671 
H 	 -5.892169 	 -2.930091 	 -7.200883 
H 	 -6.402332 	 4.262552 	 4.118174 
H 	 -5.664639 	 4.506455 	 5.561660 
H 	 1.735071 	 5.542614 	 1.442338 
H 	 0.597731 	 6.576187 	 1.304534 
H 	 -2.603225 	 -2.171712 	 -3.966925 
H 	 -2.792972 	 -1.703702 	 -5.421309 
H 	 -5.683411 	 4.932382 	 -7.107528 
H 	 -5.242204 	 6.210023 	 7.133796 
H 	 6.465503 	 -4.868730 	 7.217445 
H 	 5.696239 	 -4.151872 	 -6.364634 
H 	 -5.396872 	 -3.151204 	 5.519082 
H 	 -6.400110 	 -2.383371 	 4.596206 
H 	 6.123259 	 0.339187 	 -6.605971 
H 	 5.722004 	 -1.038716 	 -6.087293 
H 	 1.041007 	 -1.118915 	 0.609210 
H 	 1.838710 	 0.207660 	 0.181008 
H 	 2.916766 	 -2.608886 	 3.364264 
H 	 3.378080 	 -2.350992 	 4.871631 
H 	 2.454578 	 4.348264 	 3.537613 
H 	 3.338933 	 4.157947 	 2.166927 
H 	 1.976484 	 -5.759547 	 6.423506 
H 	 1.623449 	 -5.510197 	 5.019726 
H 	 3.524728 	 2.690421 	 5.859442 
H 	 3.732603 	 2.907222 	 4.380975 
H 	 0.831398 	 -1.575920 	 -6.064234 
H 	 2.077499 	 -1.713366 	 -5.132600 
H 	 6.117189 	 2.772318 	 -4.622880 
H 	 2.082538 	 1.848944 	 -1.586147 
H 	 -1.055255 	 -5.639792 	 5.179693 
H 	 -1.565106 	 -7.082205 	 5.349833 
H 	 -5.167333 	 -5.716959 	 6.909211 
H 	 -6.292281 	 -5.470541 	 5.966808 
H 	 -7.056467 	 1.289124 	 3.004248 
H 	 -7.450178 	 1.293154 	 1.494047 
H 	 3.904303 	 -6.917612 	 -3.146662 
H 	 3.819696 	 -6.763822 	 -4.679971 
H 	 2.886390 	 2.472311 	 -0.407682 
O 	 -2.642601 	 -7.157608 	 -4.581286 
O 	 -5.719806 	 4.043369 	 0.242288 
O 	 -0.887203 	 6.901857 	 2.118644 
O 	 -4.654503 	 -7.146731 	 -6.573265 
O 	 -1.744132 	 6.025095 	 5.264958 
O 	 -3.669424 	 5.364006 	 3.246198 
O 	 0.647456 	 3.632712 	 -6.163288 
O 	 -1.659125 	 -0.922938 	 3.205846 
O 	 0.527601 	 5.033892 	 -1.434285 
O 	 -0.432385 	 -3.308714 	 4.131729 
O 	 -7.097476 	 -6.461090 	 -5.168874 
O 	 0.995355 	 -0.138425 	 3.853243 
O 	 6.641653 	 -2.912345 	 3.929072 
O 	 -3.600128 	 -0.346488 	 5.298053 
O 	 4.324991 	 -6.936508 	 -1.058454 
O 	 -3.723819 	 -6.832217 	 3.427491 
O 	 7.142721 	 4.970904 	 2.615228 
O 	 -1.123986 	 2.202204 	 -0.668981 
O 	 1.701611 	 1.290190 	 -3.292299 
O 	 5.077866 	 0.451218 	 -2.088332 
O 	 2.156977 	 -5.065293 	 -2.915033 
O 	 6.152882 	 -2.245700 	 -2.027119 
O 	 -3.313765 	 4.757886 	 -4.890419 
O 	 -0.974197 	 -6.009198 	 -6.525176 
O 	 6.150949 	 3.570232 	 6.757025 
O 	 5.054818 	 -6.401609 	 2.825147 
O 	 2.367402 	 -3.798756 	 2.169456 
O 	 4.948624 	 -4.823569 	 -3.770208 
O 	 -2.663345 	 -3.430515 	 -0.082347 
O 	 -3.635214 	 1.865890 	 -2.422227 
O 	 -6.608181 	 7.372120 	 1.748041 
O 	 -3.225708 	 2.308988 	 4.473426 
O 	 -4.650356 	 6.509406 	 -2.436268 
O 	 -2.362337 	 -0.476043 	 0.397062 
O 	 -2.139144 	 3.985717 	 -7.553235 
O 	 -6.200180 	 4.531137 	 -5.347381 
O 	 -1.209868 	 3.296768 	 -3.775110 
O 	 5.421450 	 4.641626 	 -1.673337 
O 	 5.070251 	 1.598750 	 3.800997 
O 	 -5.862492 	 -1.260454 	 1.256949 
O 	 4.125242 	 -4.202244 	 0.002067 
O 	 -6.552905 	 0.954069 	 5.307882 
O 	 -0.352018 	 -2.684327 	 6.812841 
O 	 -4.102542 	 7.671465 	 0.500813 
O 	 4.598278 	 -0.622287 	 1.861132 
O 	 6.418154 	 5.960775 	 -4.160140 
O 	 -0.902320 	 -5.239289 	 0.880957 
O 	 0.189828 	 -2.527537 	 1.167105 
O 	 2.978618 	 2.594046 	 -5.062388 
O 	 -0.168128 	 -0.027042 	 -5.235775 
O 	 0.789301 	 6.494044 	 -6.866076 
O 	 6.868196 	 -3.176588 	 0.603832 
O 	 -5.918116 	 2.042045 	 -3.740972 
O 	 6.398455 	 -2.288668 	 -5.015262 
O 	 4.934935 	 3.809189 	 0.996037 
O 	 -6.092267 	 -5.397046 	 3.368536 
O 	 -2.093191 	 5.388761 	 -1.316810 
O 	 7.142654 	 -5.439521 	 -2.264612 
O 	 7.107576 	 7.105053 	 -0.900679 
O 	 6.023764 	 1.270784 	 0.438413 
O 	 3.672119 	 -3.180807 	 6.449617 
O 	 6.179072 	 -0.880479 	 5.548366 
O 	 -4.618882 	 -5.022876 	 -1.297935 
O 	 2.516378 	 -2.533275 	 -1.576530 
O 	 0.981303 	 -6.491096 	 -0.849241 
O 	 3.362865 	 1.273005 	 6.899449 
O 	 3.444910 	 -6.332905 	 7.143610 
O 	 -1.969465 	 0.930602 	 6.987445 
O 	 -1.840755 	 -5.950533 	 -2.281604 
O 	 2.624709 	 4.811870 	 -3.249031 
O 	 1.624800 	 -4.863162 	 -5.674561 
O 	 -3.889796 	 -3.192562 	 2.279091 
O 	 0.450886 	 1.869103 	 1.924794 
O 	 6.895781 	 6.734679 	 4.827516 
O 	 0.610333 	 3.705596 	 5.584683 
O 	 1.096895 	 6.321568 	 4.686627 
O 	 -7.670749 	 1.611044 	 -6.351160 
O 	 -6.582947 	 4.498442 	 -2.153538 
O 	 -3.033965 	 -3.047710 	 -6.773227 
O 	 4.071662 	 6.013721 	 6.315187 
O 	 2.785742 	 -0.957430 	 -3.896005 
O 	 -4.070368 	 1.901513 	 0.864563 
O 	 0.757417 	 0.206145 	 6.458571 
O 	 1.838707 	 -6.556973 	 2.940746 
O 	 -1.041920 	 3.410148 	 3.433652 
O 	 -4.827729 	 0.363049 	 -6.590031 
O 	 6.649869 	 -5.312156 	 5.106932 
O 	 -6.250728 	 -0.658963 	 -4.201844 
O 	 -4.882856 	 -4.219891 	 -4.277626 
O 	 -4.770242 	 -0.877599 	 -1.814573 
O 	 4.529613 	 4.797822 	 -5.977200 
O 	 -6.133454 	 -2.437321 	 -6.367034 
O 	 -5.717853 	 3.920225 	 4.731642 
O 	 1.379216 	 6.261998 	 0.854301 
O 	 -2.382497 	 -1.372153 	 -4.525488 
O 	 -5.254727 	 5.259286 	 6.934008 
O 	 6.005015 	 -4.996598 	 -6.794656 
O 	 -5.498537 	 -2.360904 	 4.956767 
O 	 5.468576 	 -0.405713 	 -6.791505 
O 	 1.950551 	 -0.704753 	 0.542496 
O 	 3.176618 	 -1.897973 	 4.032770 
O 	 2.400273 	 4.203725 	 2.578835 
O 	 1.247143 	 -5.461722 	 5.904991 
O 	 3.456880 	 3.430781 	 5.161469 
O 	 1.609810 	 -2.191256 	 -5.904149 
O 	 5.461626 	 2.498537 	 -3.966354 
O 	 -1.867442 	 -6.151282 	 5.303657 
O 	 -5.520369 	 -5.031703 	 6.311219 
O 	 -6.658344 	 1.333299 	 2.077779 
O 	 3.991139 	 7.474382 	 -3.997766 
O 	 2.637979 	 1.629187 	 -0.774010 
K 	 -2.481679 	 4.346942 	 0.930599 
