333
conformation = 5
H 	 137.913938 	 -590.635361 	 108.780464 
H 	 138.641531 	 -589.285225 	 109.444555 
H 	 -850.506936 	 -593.226645 	 -885.865898 
H 	 -849.642435 	 405.610580 	 113.634538 
H 	 140.347824 	 -590.413970 	 101.500233 
H 	 140.046226 	 -589.723471 	 -884.912177 
H 	 -849.533618 	 -589.622865 	 107.220676 
H 	 137.088874 	 -589.516945 	 107.445627 
H 	 139.128057 	 -592.102967 	 104.298571 
H 	 138.665700 	 -591.695313 	 102.839136 
H 	 136.654443 	 -592.448150 	 102.208632 
H 	 137.153711 	 -591.149972 	 101.594978 
H 	 142.581502 	 405.815297 	 107.149895 
H 	 141.950179 	 -592.732087 	 106.881563 
H 	 138.674450 	 401.907262 	 102.202256 
H 	 140.188511 	 401.989160 	 101.729918 
H 	 142.352602 	 -592.399969 	 111.106765 
H 	 141.914275 	 -591.762142 	 112.364946 
H 	 140.210092 	 399.755313 	 101.873814 
H 	 141.489934 	 398.874773 	 102.152809 
H 	 148.465663 	 -589.640713 	 108.455911 
H 	 148.143186 	 -588.495382 	 107.512298 
H 	 142.662026 	 401.662000 	 102.162527 
H 	 142.132554 	 403.033765 	 101.443571 
H 	 147.441577 	 399.803585 	 101.358090 
H 	 147.198511 	 400.409045 	 102.866839 
H 	 136.820323 	 401.279275 	 103.612464 
H 	 137.834998 	 402.230344 	 104.537107 
H 	 146.342066 	 -589.673309 	 112.543636 
H 	 145.088334 	 -588.705855 	 112.631941 
H 	 -848.674180 	 -589.130435 	 101.790292 
H 	 137.774177 	 -589.101084 	 102.518084 
H 	 148.469377 	 -591.594863 	 -884.625165 
H 	 147.435588 	 -592.863311 	 -884.662118 
H 	 140.557246 	 404.566798 	 113.287829 
H 	 139.233267 	 403.929110 	 112.700969 
H 	 143.241146 	 404.447327 	 109.149951 
H 	 141.855942 	 403.766240 	 109.285746 
H 	 145.106378 	 403.340640 	 111.472091 
H 	 146.187715 	 403.781183 	 110.407902 
H 	 142.795406 	 -587.411117 	 109.301914 
H 	 143.118920 	 398.333964 	 110.734146 
H 	 146.486025 	 401.040013 	 111.078714 
H 	 146.641262 	 399.499011 	 110.833718 
H 	 138.122785 	 -593.056079 	 108.976849 
H 	 136.642612 	 -592.664215 	 108.370973 
H 	 139.594597 	 -588.680597 	 105.704023 
H 	 139.404544 	 -589.001448 	 107.201119 
H 	 146.893020 	 406.443870 	 104.326461 
H 	 146.374252 	 406.525734 	 105.799911 
H 	 146.360364 	 -589.874490 	 101.253250 
H 	 145.183453 	 -588.991781 	 101.009235 
H 	 143.968164 	 398.499094 	 -885.352668 
H 	 143.117644 	 397.758526 	 100.759484 
H 	 146.496458 	 -587.813361 	 110.078253 
H 	 145.086377 	 -587.424723 	 109.660956 
H 	 137.804788 	 398.942850 	 112.411025 
H 	 137.725685 	 399.342182 	 113.919741 
H 	 137.978107 	 404.555873 	 110.193659 
H 	 137.699090 	 405.032439 	 111.638087 
H 	 149.230269 	 -589.216892 	 -884.609643 
H 	 -849.911978 	 -590.354342 	 -885.348909 
H 	 137.613448 	 403.889423 	 102.629065 
H 	 136.871377 	 405.322891 	 102.635002 
H 	 -848.901659 	 -590.630443 	 111.674478 
H 	 -849.200155 	 -591.566664 	 110.572884 
H 	 138.764767 	 401.238130 	 113.327689 
H 	 139.059346 	 402.041093 	 -885.457092 
H 	 139.452001 	 406.434151 	 106.396702 
H 	 137.967821 	 -593.193398 	 106.226499 
H 	 -850.450927 	 406.160893 	 108.062269 
H 	 148.944168 	 -592.528081 	 108.257095 
H 	 140.188654 	 405.978610 	 110.387456 
H 	 140.560832 	 406.022886 	 108.867564 
H 	 145.492925 	 -592.913839 	 111.098080 
H 	 146.986687 	 406.595096 	 111.214838 
H 	 145.720418 	 403.775786 	 102.918202 
H 	 145.825226 	 403.412199 	 101.415565 
H 	 -850.073072 	 402.416480 	 -885.383745 
H 	 149.211042 	 401.091653 	 -885.498663 
H 	 144.530443 	 398.908286 	 112.397861 
H 	 145.804148 	 398.881495 	 113.464245 
H 	 149.424112 	 404.607920 	 103.685426 
H 	 -849.873138 	 403.256764 	 103.888031 
H 	 140.451594 	 400.109857 	 104.185760 
H 	 141.092918 	 399.194367 	 105.221913 
H 	 137.308356 	 -589.484391 	 -885.581037 
H 	 136.790837 	 -589.089446 	 113.037143 
H 	 145.658470 	 401.242266 	 101.064909 
H 	 144.795754 	 401.748768 	 -885.185723 
H 	 147.650997 	 -591.666889 	 110.006592 
H 	 146.563058 	 -590.899096 	 109.334501 
H 	 139.279736 	 397.713898 	 113.917547 
H 	 140.615544 	 -588.034082 	 113.184238 
H 	 141.789636 	 399.495990 	 -885.141529 
H 	 140.577902 	 399.399588 	 113.826119 
H 	 145.508895 	 405.075805 	 108.892294 
H 	 144.224884 	 404.569357 	 107.374751 
H 	 140.248817 	 401.945677 	 108.501284 
H 	 140.084534 	 403.025426 	 107.553466 
H 	 142.596967 	 -590.406743 	 106.278767 
H 	 141.139268 	 -590.513073 	 106.831309 
H 	 148.388142 	 398.684204 	 113.335071 
H 	 147.713831 	 399.997400 	 113.113218 
H 	 -850.367431 	 403.832100 	 109.391543 
H 	 -849.085783 	 404.601397 	 109.951089 
H 	 147.994470 	 400.727051 	 108.694980 
H 	 146.945242 	 399.721215 	 108.958633 
H 	 146.169818 	 405.490675 	 -885.830101 
H 	 145.848036 	 406.640130 	 113.145108 
H 	 -849.683804 	 397.977600 	 101.843235 
H 	 149.070427 	 -587.904662 	 102.415201 
H 	 138.445601 	 -591.650572 	 111.213330 
H 	 139.928366 	 -592.032680 	 111.522458 
H 	 148.334574 	 -588.929927 	 111.150601 
H 	 148.543888 	 -587.865441 	 110.002342 
H 	 147.847455 	 -591.324271 	 112.386179 
H 	 148.444412 	 -590.164175 	 113.230451 
H 	 146.991156 	 403.631745 	 112.675666 
H 	 146.478271 	 402.952781 	 113.981068 
H 	 143.940729 	 399.658953 	 105.285471 
H 	 144.542381 	 398.335370 	 104.797357 
H 	 147.874519 	 402.361816 	 103.714447 
H 	 146.962016 	 401.618635 	 104.804303 
H 	 136.751066 	 -587.864669 	 110.984655 
H 	 -849.646921 	 -587.425444 	 111.524963 
H 	 143.352194 	 400.502176 	 112.330629 
H 	 143.765674 	 400.501799 	 110.816295 
H 	 142.435955 	 -588.295392 	 111.700284 
H 	 142.629621 	 -589.543253 	 112.627959 
H 	 143.527005 	 403.314142 	 104.952553 
H 	 144.958973 	 403.322020 	 105.695953 
H 	 145.356724 	 -588.458231 	 105.717566 
H 	 144.712327 	 -589.301813 	 104.688993 
H 	 139.997811 	 403.290669 	 104.875878 
H 	 138.821054 	 404.234459 	 104.951443 
H 	 138.788591 	 -588.039471 	 111.724746 
H 	 139.758869 	 -589.140482 	 111.225011 
H 	 143.343696 	 406.724026 	 109.286311 
H 	 143.895774 	 -591.778443 	 109.599025 
H 	 141.699027 	 -587.765233 	 107.234319 
H 	 142.389617 	 398.667239 	 107.580482 
H 	 -848.689234 	 399.991890 	 -884.578206 
H 	 137.812785 	 399.794205 	 101.298147 
H 	 142.047288 	 405.182463 	 -884.981050 
H 	 140.723568 	 404.817773 	 100.889304 
H 	 147.903983 	 -591.543256 	 102.524286 
H 	 147.668935 	 -591.172596 	 103.991728 
H 	 142.525809 	 405.888594 	 103.751536 
H 	 141.514410 	 406.130540 	 104.903237 
H 	 142.714296 	 -591.421139 	 103.705475 
H 	 141.423098 	 -591.775910 	 103.067325 
H 	 149.099122 	 403.848625 	 106.845587 
H 	 148.171355 	 404.935669 	 106.237077 
H 	 -850.223010 	 406.175303 	 110.599980 
H 	 -850.487549 	 -593.078634 	 111.971481 
H 	 138.823737 	 399.839081 	 105.881363 
H 	 138.238563 	 398.613993 	 106.834759 
H 	 145.187253 	 -591.625953 	 105.666488 
H 	 144.976638 	 -592.399776 	 104.245229 
H 	 143.403454 	 402.426630 	 109.641567 
H 	 144.650887 	 401.753732 	 109.007814 
H 	 137.389101 	 403.713109 	 113.998289 
H 	 -848.722583 	 404.368034 	 -884.997000 
H 	 141.841467 	 402.654774 	 103.860288 
H 	 141.811602 	 401.828054 	 105.143006 
H 	 142.548076 	 -589.733996 	 -884.458569 
H 	 143.102096 	 -589.641374 	 101.980014 
H 	 139.063555 	 405.453684 	 102.011271 
H 	 140.383934 	 405.882447 	 102.556759 
H 	 136.983759 	 403.050414 	 107.056467 
H 	 -848.963516 	 401.892057 	 106.339062 
H 	 147.314868 	 398.001725 	 102.899384 
H 	 147.175174 	 -588.718042 	 102.957666 
H 	 -849.760414 	 401.759600 	 109.608766 
H 	 -849.951981 	 401.938011 	 108.112838 
H 	 -849.287994 	 398.758085 	 108.267187 
H 	 -849.343972 	 -587.805572 	 108.861503 
H 	 137.001685 	 402.400027 	 111.394770 
H 	 -848.945558 	 401.653467 	 112.360118 
H 	 146.171609 	 -592.635381 	 107.972636 
H 	 144.845668 	 406.733653 	 107.468205 
H 	 148.945320 	 399.702963 	 106.856856 
H 	 -849.934371 	 399.544900 	 105.842174 
H 	 149.363610 	 406.692275 	 102.387869 
H 	 -849.891969 	 -593.037285 	 103.773100 
H 	 142.753585 	 -591.927854 	 -885.626382 
H 	 141.375128 	 -591.176283 	 -885.424064 
H 	 138.689707 	 400.509599 	 109.326429 
H 	 138.329556 	 400.541730 	 107.832146 
H 	 -849.654580 	 -592.293142 	 106.208636 
H 	 -848.934269 	 -591.356289 	 105.339177 
H 	 147.527896 	 397.812814 	 105.638468 
H 	 146.754309 	 398.272573 	 107.077720 
H 	 -849.430535 	 399.218278 	 103.532069 
H 	 149.455886 	 400.126487 	 102.891669 
H 	 147.122498 	 402.894175 	 106.737635 
H 	 146.505960 	 401.507352 	 107.043555 
H 	 142.190363 	 401.570069 	 -885.823178 
H 	 142.947400 	 402.794357 	 113.460509 
H 	 143.865560 	 399.871014 	 101.724147 
H 	 144.336449 	 400.307563 	 103.156436 
H 	 143.362245 	 -593.067942 	 101.709988 
H 	 144.438418 	 406.616111 	 -884.537778 
H 	 142.865494 	 -588.181662 	 104.680001 
H 	 142.655980 	 -588.070983 	 103.230293 
H 	 144.508376 	 405.305639 	 104.103653 
H 	 145.057813 	 405.642747 	 102.742425 
H 	 141.869747 	 401.021441 	 106.992181 
H 	 142.984892 	 400.970657 	 108.057469 
H 	 146.967292 	 404.540834 	 108.785643 
H 	 143.205349 	 404.345043 	 111.498430 
H 	 140.004009 	 -588.360911 	 103.368868 
H 	 139.243634 	 -589.654718 	 103.707093 
H 	 -849.009086 	 -587.758503 	 105.241549 
H 	 -850.075755 	 -588.319811 	 104.375819 
H 	 149.209045 	 403.638143 	 101.398906 
H 	 148.361397 	 403.961516 	 -884.956586 
H 	 144.919208 	 -589.597612 	 110.114058 
H 	 144.754573 	 -589.352763 	 108.611406 
H 	 144.117558 	 404.983837 	 112.663092 
O 	 138.380811 	 -589.775273 	 108.617916 
O 	 -849.835036 	 406.517717 	 113.425571 
O 	 140.008084 	 -590.593898 	 -884.463310 
O 	 -848.663639 	 -589.631221 	 106.729796 
O 	 139.343680 	 -591.522966 	 103.542609 
O 	 137.348072 	 -592.123606 	 101.573433 
O 	 141.706945 	 406.324681 	 107.021665 
O 	 139.309660 	 401.674991 	 101.502445 
O 	 141.566886 	 -592.410508 	 111.755861 
O 	 140.643903 	 399.143805 	 102.517041 
O 	 148.884214 	 -588.859872 	 108.056907 
O 	 142.004656 	 402.441117 	 102.201381 
O 	 147.579718 	 399.643163 	 102.283037 
O 	 137.407785 	 402.048012 	 103.683245 
O 	 145.418634 	 -589.584085 	 112.291114 
O 	 137.337005 	 -589.443777 	 101.693798 
O 	 148.152750 	 -592.455875 	 100.884356 
O 	 139.851479 	 404.674976 	 112.597285 
O 	 142.680145 	 403.881582 	 109.784365 
O 	 145.919281 	 402.980841 	 111.058943 
O 	 143.299159 	 -587.523826 	 110.141087 
O 	 147.171500 	 400.285429 	 111.065023 
O 	 137.638431 	 -592.679928 	 108.264819 
O 	 139.999110 	 -588.520280 	 106.598757 
O 	 147.085223 	 406.133502 	 105.221358 
O 	 146.138410 	 -588.918114 	 101.133436 
O 	 143.379912 	 398.682359 	 -884.595666 
O 	 146.010560 	 397.873198 	 109.445365 
O 	 138.374982 	 399.255060 	 113.129094 
O 	 137.457867 	 404.363216 	 110.981885 
O 	 149.191225 	 -590.106387 	 -885.074019 
O 	 137.754741 	 404.847581 	 102.757052 
O 	 -848.554850 	 -590.845613 	 110.789934 
O 	 138.686659 	 402.144883 	 113.672759 
O 	 138.770915 	 406.444242 	 105.721401 
O 	 -850.298853 	 -592.960307 	 107.831690 
O 	 139.792509 	 405.789552 	 109.469622 
O 	 146.291564 	 -592.901206 	 111.658695 
O 	 146.136878 	 404.098608 	 102.097997 
O 	 -849.855560 	 401.437355 	 -885.534568 
O 	 144.993814 	 398.424260 	 113.157385 
O 	 149.306677 	 403.650220 	 103.594443 
O 	 140.652711 	 400.024278 	 105.100003 
O 	 136.862790 	 -589.875858 	 113.637039 
O 	 145.709408 	 401.872397 	 -884.820560 
O 	 147.398690 	 -591.424926 	 109.126926 
O 	 140.116254 	 -587.855000 	 114.006442 
O 	 141.114893 	 399.995827 	 -885.652097 
O 	 144.044021 	 405.157387 	 108.127285 
O 	 140.811954 	 402.516421 	 107.917980 
O 	 141.859055 	 -591.032975 	 106.401172 
O 	 147.811186 	 399.341575 	 113.859254 
O 	 -849.984502 	 404.685095 	 109.476764 
O 	 147.316233 	 400.247179 	 108.194851 
O 	 145.874001 	 406.435161 	 -885.844013 
O 	 -850.268701 	 -587.841000 	 101.703892 
O 	 138.967653 	 -592.162091 	 111.799880 
O 	 148.303274 	 -587.967438 	 110.953822 
O 	 148.097961 	 -590.398610 	 112.354941 
O 	 146.935814 	 403.768598 	 113.634240 
O 	 144.650087 	 399.295242 	 104.718868 
O 	 147.198787 	 401.670611 	 103.868901 
O 	 -848.701374 	 -587.536816 	 111.824521 
O 	 143.535341 	 399.930610 	 111.589790 
O 	 141.943881 	 -588.955351 	 112.194247 
O 	 144.319960 	 403.882964 	 105.190499 
O 	 144.483868 	 -588.860076 	 105.506498 
O 	 139.106002 	 403.335294 	 105.273772 
O 	 139.131657 	 -588.467379 	 110.882650 
O 	 143.533318 	 -592.607326 	 109.991578 
O 	 142.575268 	 -587.411294 	 107.580440 
O 	 137.177885 	 399.355363 	 -884.466602 
O 	 141.381665 	 404.456774 	 -884.924969 
O 	 147.997999 	 -590.771172 	 103.139363 
O 	 141.621358 	 406.205224 	 103.906601 
O 	 142.133865 	 -591.090634 	 102.991526 
O 	 148.236865 	 404.242088 	 106.953051 
O 	 149.287807 	 -593.024251 	 110.968801 
O 	 138.083211 	 399.506605 	 106.381861 
O 	 145.135300 	 -591.491287 	 104.662842 
O 	 143.761704 	 401.541009 	 109.374106 
O 	 136.934470 	 404.558035 	 -885.758158 
O 	 141.832841 	 402.781589 	 104.883519 
O 	 142.880110 	 -589.041137 	 101.238832 
O 	 139.897811 	 405.943610 	 101.748394 
O 	 -848.990247 	 402.851116 	 106.568709 
O 	 147.589399 	 -587.943328 	 103.335247 
O 	 -850.470482 	 401.874855 	 108.942623 
O 	 -848.876114 	 398.163454 	 108.957014 
O 	 -848.791176 	 401.716780 	 111.424469 
O 	 145.523313 	 -592.586658 	 107.233314 
O 	 -850.100564 	 399.894933 	 106.741141 
O 	 -849.899160 	 406.424484 	 102.973844 
O 	 142.234268 	 -591.086402 	 -885.775267 
O 	 138.566616 	 401.185316 	 108.624183 
O 	 -849.294539 	 -592.248195 	 105.267988 
O 	 147.118211 	 -587.572236 	 106.501585 
O 	 -849.631182 	 400.119064 	 103.248494 
O 	 146.434940 	 402.244998 	 106.417336 
O 	 143.035348 	 401.882229 	 113.756631 
O 	 144.092968 	 400.674158 	 102.292868 
O 	 143.448070 	 406.727388 	 100.760805 
O 	 142.216080 	 -587.933974 	 104.051216 
O 	 144.513375 	 406.051407 	 103.441994 
O 	 142.547982 	 400.414892 	 107.318632 
O 	 146.406361 	 405.019032 	 109.434010 
O 	 139.113015 	 -588.665706 	 103.655105 
O 	 -849.635595 	 -587.481831 	 104.556889 
O 	 149.286397 	 403.888084 	 -884.669729 
O 	 144.920520 	 -590.077073 	 109.263142 
O 	 143.762319 	 404.154444 	 112.324718 
K 	 138.558476 	 -593.064113 	 -885.835501 
