333
conformation = 34
H 	 -2.649040 	 6.759261 	 -4.494795 
H 	 -2.767946 	 -6.635073 	 -3.752515 
H 	 -6.218351 	 3.783827 	 1.072455 
H 	 -5.091110 	 3.319002 	 0.248177 
H 	 -0.811900 	 6.803311 	 3.061654 
H 	 -1.190022 	 -7.087439 	 1.957292 
H 	 -5.345830 	 -6.941740 	 -5.876936 
H 	 -3.826172 	 -7.097652 	 -6.064321 
H 	 -1.725400 	 5.481873 	 6.071061 
H 	 -2.285318 	 5.543287 	 4.600325 
H 	 -4.473967 	 4.909740 	 3.645375 
H 	 -3.899149 	 6.317255 	 3.380795 
H 	 1.373210 	 3.169655 	 -5.605763 
H 	 0.872151 	 4.584367 	 -6.167880 
H 	 -2.260228 	 -0.924742 	 3.968105 
H 	 -0.822305 	 -0.525245 	 3.468154 
H 	 1.193309 	 5.218819 	 -2.167827 
H 	 0.734047 	 5.780095 	 -0.872513 
H 	 -0.758288 	 -2.603359 	 3.523377 
H 	 0.487353 	 -3.451301 	 3.824654 
H 	 -7.640329 	 -7.167931 	 -4.806889 
H 	 7.169320 	 -5.888385 	 -5.651822 
H 	 1.843969 	 -0.665206 	 3.854982 
H 	 1.006889 	 0.497519 	 3.121545 
H 	 6.346016 	 -2.735325 	 3.033136 
H 	 6.436189 	 -2.098384 	 4.529202 
H 	 -4.198620 	 -0.995523 	 5.681999 
H 	 -2.987591 	 0.002904 	 5.984452 
H 	 5.241045 	 7.674037 	 -1.065210 
H 	 4.288249 	 -6.072394 	 -0.561497 
H 	 -4.488405 	 -6.244458 	 3.449789 
H 	 -2.985983 	 -6.375623 	 3.886941 
H 	 -7.459916 	 5.863660 	 2.338515 
H 	 6.402573 	 4.584857 	 2.180374 
H 	 -0.361701 	 2.372689 	 -0.060913 
H 	 -1.334955 	 1.243091 	 -0.610684 
H 	 2.180143 	 1.737866 	 -4.148132 
H 	 0.827388 	 0.951797 	 -3.568416 
H 	 4.172101 	 0.697362 	 -1.803844 
H 	 5.259653 	 1.092164 	 -2.887420 
H 	 1.857638 	 -5.073279 	 -3.844623 
H 	 2.154347 	 -4.145792 	 -2.560266 
H 	 5.513633 	 -1.467196 	 -2.120100 
H 	 5.597974 	 -3.043114 	 -2.249408 
H 	 -2.929846 	 4.187305 	 -4.230848 
H 	 -4.308200 	 4.727040 	 -4.914515 
H 	 -1.480358 	 -6.313668 	 -7.328267 
H 	 -1.474790 	 -6.402840 	 -5.791369 
H 	 5.744239 	 3.556015 	 5.889385 
H 	 5.480919 	 3.957960 	 -7.514183 
H 	 4.988446 	 7.598697 	 3.170819 
H 	 4.199645 	 -6.356278 	 2.384717 
H 	 3.013332 	 -3.772102 	 1.417403 
H 	 2.260515 	 -4.788807 	 2.330772 
H 	 5.371203 	 -5.102496 	 -2.922117 
H 	 4.031348 	 -4.664914 	 -3.494260 
H 	 -3.390541 	 -3.528555 	 -0.704945 
H 	 -3.174143 	 -3.433558 	 0.812211 
H 	 -2.860660 	 1.818457 	 -2.978844 
H 	 -3.451007 	 2.553060 	 -1.744006 
H 	 -6.644803 	 -6.760024 	 2.370196 
H 	 -5.764721 	 7.376011 	 1.267220 
H 	 -3.468538 	 1.355883 	 4.547302 
H 	 -4.053766 	 2.844254 	 4.682916 
H 	 -4.705772 	 6.562331 	 -1.467977 
H 	 -5.212751 	 5.712245 	 -2.585474 
H 	 -2.816616 	 -1.229866 	 -0.003062 
H 	 -2.159410 	 -0.783455 	 1.274434 
H 	 -1.315781 	 3.723351 	 -7.153648 
H 	 -2.746068 	 4.135566 	 -6.745480 
H 	 -6.355037 	 3.677418 	 -5.017533 
H 	 -7.027560 	 4.985717 	 -5.200656 
H 	 -0.637091 	 3.022010 	 -2.981604 
H 	 -0.509054 	 3.653959 	 -4.386732 
H 	 4.538846 	 4.832224 	 -2.065896 
H 	 5.758025 	 3.845989 	 -2.109342 
H 	 4.969011 	 1.040844 	 4.576859 
H 	 4.786345 	 0.991182 	 3.040687 
H 	 -5.960429 	 -0.293956 	 1.538779 
H 	 -6.815407 	 -1.525776 	 1.150342 
H 	 3.842376 	 -3.408362 	 -0.512586 
H 	 5.051674 	 -4.125994 	 0.261171 
H 	 -6.365960 	 1.915965 	 5.369050 
H 	 -5.788807 	 0.513677 	 5.602147 
H 	 -0.283704 	 -2.706278 	 5.860400 
H 	 -0.008159 	 -3.487818 	 7.174994 
H 	 -3.632832 	 -6.829609 	 1.268566 
H 	 -4.213086 	 -6.458530 	 -0.104872 
H 	 4.444218 	 -0.960739 	 2.807520 
H 	 3.682365 	 -0.618523 	 1.497725 
H 	 6.555192 	 5.808773 	 -3.236390 
H 	 5.576470 	 6.490520 	 -4.039930 
H 	 -1.631145 	 -4.683964 	 0.554330 
H 	 -0.325790 	 -5.513035 	 0.129197 
H 	 0.952977 	 -3.155442 	 1.226651 
H 	 -0.619863 	 -2.970021 	 0.852560 
H 	 4.615951 	 2.469020 	 -4.495957 
H 	 3.053605 	 2.204208 	 -5.953638 
H 	 -0.920118 	 -0.691020 	 -5.175693 
H 	 -0.453656 	 0.566843 	 -5.928416 
H 	 1.534878 	 7.118316 	 -6.966892 
H 	 0.002234 	 7.075672 	 -6.913285 
H 	 -7.657654 	 -4.101778 	 0.343779 
H 	 6.651579 	 -2.872213 	 -0.311699 
H 	 -6.441579 	 1.309298 	 -3.967808 
H 	 -5.208034 	 1.806600 	 -3.055612 
H 	 7.055370 	 -1.857392 	 -4.425402 
H 	 5.923027 	 -2.872419 	 -4.355081 
H 	 5.217804 	 2.890444 	 0.705979 
H 	 5.199276 	 4.367307 	 0.151900 
H 	 -5.684639 	 -4.536703 	 3.373139 
H 	 -6.906805 	 -5.308942 	 3.937506 
H 	 -2.482616 	 5.963098 	 -1.934048 
H 	 -1.214023 	 5.186824 	 -1.732362 
H 	 7.159888 	 -6.409246 	 -2.097189 
H 	 -7.233021 	 -5.280991 	 -3.078360 
H 	 6.669048 	 6.259744 	 -1.031522 
H 	 -7.525226 	 7.127013 	 0.045205 
H 	 5.833677 	 1.029475 	 -0.485617 
H 	 5.531946 	 0.577438 	 0.986769 
H 	 3.385227 	 -2.789925 	 7.281961 
H 	 3.335043 	 -4.089833 	 6.500752 
H 	 6.886480 	 -0.203519 	 5.462070 
H 	 5.800719 	 -0.904153 	 6.452337 
H 	 -4.569046 	 -5.207262 	 -2.259399 
H 	 -5.587991 	 -5.163256 	 -1.228937 
H 	 2.043503 	 -1.979446 	 -0.969067 
H 	 2.560013 	 -2.002954 	 -2.398145 
H 	 1.516270 	 -6.433825 	 -1.650136 
H 	 1.525469 	 -6.985359 	 -0.162087 
H 	 2.456359 	 0.815519 	 6.846197 
H 	 4.055703 	 0.586416 	 6.937817 
H 	 4.246899 	 -6.002976 	 -7.293655 
H 	 3.782253 	 -7.170968 	 6.813711 
H 	 -0.995925 	 0.873615 	 6.914973 
H 	 -2.049762 	 1.909149 	 6.820888 
H 	 -2.158162 	 -5.392963 	 -1.521703 
H 	 -1.165726 	 -6.539460 	 -1.881999 
H 	 2.488474 	 4.052646 	 -3.876662 
H 	 2.812298 	 5.619961 	 -3.771254 
H 	 0.782843 	 -5.313498 	 -5.979883 
H 	 1.474684 	 -3.951204 	 -5.971441 
H 	 -4.580157 	 -2.465408 	 2.208762 
H 	 -3.074663 	 -2.870084 	 2.751850 
H 	 1.250551 	 2.427839 	 1.948062 
H 	 -0.219817 	 2.415091 	 2.403162 
H 	 6.922001 	 5.852980 	 4.367645 
H 	 6.564960 	 6.463091 	 5.700342 
H 	 1.575632 	 3.636989 	 5.600587 
H 	 0.369846 	 3.838350 	 6.542409 
H 	 1.623254 	 6.050928 	 5.457425 
H 	 0.235573 	 5.843862 	 4.852443 
H 	 -6.739014 	 1.379883 	 -6.505751 
H 	 6.986238 	 2.178094 	 -7.138020 
H 	 -6.912680 	 3.684479 	 -2.635285 
H 	 -6.225847 	 4.127073 	 -1.259518 
H 	 -2.368729 	 -3.058928 	 -7.459600 
H 	 -2.927766 	 -3.754960 	 -6.073797 
H 	 3.988412 	 5.702187 	 7.285695 
H 	 4.035840 	 5.170171 	 5.763245 
H 	 2.311013 	 -0.073995 	 -3.698660 
H 	 3.715041 	 -0.740597 	 -3.675235 
H 	 -3.558715 	 1.086120 	 0.614397 
H 	 -4.546198 	 1.679037 	 1.663978 
H 	 0.782618 	 0.111557 	 5.469893 
H 	 0.422223 	 -0.679837 	 6.764416 
H 	 1.836916 	 7.574135 	 2.337000 
H 	 1.689082 	 -7.054466 	 3.781553 
H 	 -1.932654 	 3.115789 	 3.788410 
H 	 -0.579451 	 3.487829 	 4.249071 
H 	 -3.853311 	 0.677674 	 -6.637491 
H 	 -4.846682 	 -0.597776 	 -6.790680 
H 	 6.413221 	 -4.441629 	 4.720124 
H 	 6.142039 	 -5.990298 	 4.663101 
H 	 -5.831275 	 -0.870086 	 -3.340840 
H 	 -5.532108 	 -0.453582 	 -4.831604 
H 	 -5.408082 	 -3.705323 	 -4.958980 
H 	 -5.117571 	 -5.165991 	 -4.482192 
H 	 -4.319192 	 -0.010279 	 -1.884346 
H 	 -5.335304 	 -0.790807 	 -1.050451 
H 	 5.344176 	 5.112081 	 -5.564845 
H 	 4.128594 	 4.127312 	 -5.394050 
H 	 -7.068879 	 -2.670750 	 -6.284266 
H 	 -5.890245 	 -2.920036 	 -7.207891 
H 	 -6.407900 	 4.259927 	 4.118244 
H 	 -5.667352 	 4.512935 	 5.569427 
H 	 1.734937 	 5.532712 	 1.440260 
H 	 0.577012 	 6.563019 	 1.321311 
H 	 -2.594067 	 -2.169144 	 -3.969516 
H 	 -2.796732 	 -1.700541 	 -5.419221 
H 	 -5.681564 	 4.928327 	 -7.103520 
H 	 -5.234843 	 6.210755 	 7.112118 
H 	 6.475370 	 -4.857772 	 7.227539 
H 	 5.691961 	 -4.150716 	 -6.358174 
H 	 -5.396836 	 -3.147292 	 5.511613 
H 	 -6.405584 	 -2.388176 	 4.597452 
H 	 6.126905 	 0.340063 	 -6.599759 
H 	 5.716450 	 -1.033778 	 -6.088203 
H 	 1.032181 	 -1.112269 	 0.610121 
H 	 1.838263 	 0.195476 	 0.189217 
H 	 2.917931 	 -2.607404 	 3.368427 
H 	 3.382323 	 -2.352313 	 4.862758 
H 	 2.443961 	 4.338932 	 3.535720 
H 	 3.334313 	 4.158726 	 2.160170 
H 	 1.968518 	 -5.754146 	 6.426384 
H 	 1.619380 	 -5.515485 	 5.022677 
H 	 3.536070 	 2.689544 	 5.861551 
H 	 3.735048 	 2.910518 	 4.378990 
H 	 0.841456 	 -1.577541 	 -6.073292 
H 	 2.077945 	 -1.703018 	 -5.137493 
H 	 6.119699 	 2.765209 	 -4.615405 
H 	 2.084274 	 1.856859 	 -1.580657 
H 	 -1.048945 	 -5.643391 	 5.176000 
H 	 -1.570873 	 -7.078397 	 5.351185 
H 	 -5.163352 	 -5.705330 	 6.910281 
H 	 -6.285818 	 -5.486086 	 5.971216 
H 	 -7.042540 	 1.285644 	 3.002310 
H 	 -7.447358 	 1.294462 	 1.516204 
H 	 3.912672 	 -6.932124 	 -3.152559 
H 	 3.818227 	 -6.773085 	 -4.693160 
H 	 2.893672 	 2.470659 	 -0.412522 
O 	 -2.642949 	 -7.159182 	 -4.580424 
O 	 -5.721026 	 4.042514 	 0.239311 
O 	 -0.889316 	 6.901115 	 2.124587 
O 	 -4.652166 	 -7.145291 	 -6.569679 
O 	 -1.742200 	 6.022987 	 5.263751 
O 	 -3.669989 	 5.363400 	 3.246520 
O 	 0.649710 	 3.636536 	 -6.164102 
O 	 -1.658839 	 -0.921221 	 3.204514 
O 	 0.528953 	 5.035257 	 -1.433834 
O 	 -0.431136 	 -3.311435 	 4.134898 
O 	 -7.096962 	 -6.456849 	 -5.169836 
O 	 0.995062 	 -0.137782 	 3.855053 
O 	 6.639439 	 -2.911974 	 3.929874 
O 	 -3.599917 	 -0.349669 	 5.300186 
O 	 4.327499 	 -6.938472 	 -1.054399 
O 	 -3.722890 	 -6.833390 	 3.427178 
O 	 7.142766 	 4.973492 	 2.613924 
O 	 -1.125159 	 2.201193 	 -0.667936 
O 	 1.701088 	 1.292016 	 -3.296324 
O 	 5.073814 	 0.451985 	 -2.090039 
O 	 2.159207 	 -5.063137 	 -2.918164 
O 	 6.152491 	 -2.245961 	 -2.031315 
O 	 -3.314575 	 4.757507 	 -4.891276 
O 	 -0.975760 	 -6.007459 	 -6.527693 
O 	 6.147373 	 3.571551 	 6.760991 
O 	 5.056784 	 -6.399358 	 2.825251 
O 	 2.367226 	 -3.799497 	 2.170140 
O 	 4.950331 	 -4.821404 	 -3.770188 
O 	 -2.661925 	 -3.427528 	 -0.081508 
O 	 -3.635006 	 1.864683 	 -2.417152 
O 	 -6.610679 	 7.373023 	 1.748933 
O 	 -3.224554 	 2.309212 	 4.472888 
O 	 -4.645703 	 6.512093 	 -2.435887 
O 	 -2.360600 	 -0.474274 	 0.397864 
O 	 -2.142078 	 3.984378 	 -7.552175 
O 	 -6.200471 	 4.529688 	 -5.347096 
O 	 -1.210190 	 3.296326 	 -3.775033 
O 	 5.418156 	 4.638820 	 -1.670069 
O 	 5.072605 	 1.597381 	 3.799852 
O 	 -5.861050 	 -1.256372 	 1.257598 
O 	 4.120653 	 -4.199351 	 -0.000308 
O 	 -6.554381 	 0.958796 	 5.307378 
O 	 -0.352211 	 -2.679618 	 6.813341 
O 	 -4.103631 	 7.669121 	 0.499061 
O 	 4.601170 	 -0.623263 	 1.863087 
O 	 6.417356 	 5.961392 	 -4.157458 
O 	 -0.901991 	 -5.239492 	 0.879272 
O 	 0.187307 	 -2.528419 	 1.165985 
O 	 2.979558 	 2.594335 	 -5.062571 
O 	 -0.168593 	 -0.026279 	 -5.236412 
O 	 0.790658 	 6.491834 	 -6.864718 
O 	 6.867499 	 -3.176032 	 0.606326 
O 	 -5.915764 	 2.043744 	 -3.740595 
O 	 6.396193 	 -2.288506 	 -5.015928 
O 	 4.932806 	 3.811309 	 0.995007 
O 	 -6.094071 	 -5.394207 	 3.369021 
O 	 -2.091467 	 5.386624 	 -1.318586 
O 	 7.145574 	 -5.439061 	 -2.264582 
O 	 7.107767 	 7.104825 	 -0.900521 
O 	 6.021618 	 1.269934 	 0.437333 
O 	 3.671164 	 -3.182073 	 6.446324 
O 	 6.180336 	 -0.880145 	 5.548251 
O 	 -4.617255 	 -5.020006 	 -1.300102 
O 	 2.515912 	 -2.536047 	 -1.577912 
O 	 0.980800 	 -6.488595 	 -0.853208 
O 	 3.360675 	 1.274647 	 6.899371 
O 	 3.444289 	 -6.331090 	 7.144702 
O 	 -1.968247 	 0.925906 	 6.985589 
O 	 -1.841699 	 -5.949720 	 -2.283778 
O 	 2.621527 	 4.812533 	 -3.246921 
O 	 1.623381 	 -4.861968 	 -5.673226 
O 	 -3.888466 	 -3.191660 	 2.279836 
O 	 0.447210 	 1.870044 	 1.924269 
O 	 6.898364 	 6.733844 	 4.826921 
O 	 0.610395 	 3.705025 	 5.584137 
O 	 1.096398 	 6.322521 	 4.687316 
O 	 -7.670454 	 1.612548 	 -6.348705 
O 	 -6.582958 	 4.497231 	 -2.154583 
O 	 -3.031598 	 -3.046506 	 -6.774534 
O 	 4.073157 	 6.012075 	 6.315782 
O 	 2.782777 	 -0.958062 	 -3.895747 
O 	 -4.071856 	 1.905968 	 0.868470 
O 	 0.759773 	 0.206447 	 6.459893 
O 	 1.838065 	 -6.554889 	 2.940558 
O 	 -1.043248 	 3.411003 	 3.434215 
O 	 -4.829733 	 0.361973 	 -6.591231 
O 	 6.648435 	 -5.313883 	 5.104492 
O 	 -6.251711 	 -0.659020 	 -4.204360 
O 	 -4.879595 	 -4.222851 	 -4.276419 
O 	 -4.768761 	 -0.875537 	 -1.813130 
O 	 4.528602 	 4.799732 	 -5.976962 
O 	 -6.130845 	 -2.441925 	 -6.368900 
O 	 -5.720260 	 3.919646 	 4.729015 
O 	 1.375774 	 6.265254 	 0.856062 
O 	 -2.383221 	 -1.371353 	 -4.527022 
O 	 -5.253422 	 5.258947 	 6.935558 
O 	 6.008000 	 -4.997324 	 -6.792444 
O 	 -5.499255 	 -2.361624 	 4.955838 
O 	 5.467671 	 -0.402818 	 -6.791618 
O 	 1.952598 	 -0.702362 	 0.542447 
O 	 3.173557 	 -1.897058 	 4.032144 
O 	 2.402141 	 4.204008 	 2.577369 
O 	 1.247627 	 -5.460322 	 5.900083 
O 	 3.457248 	 3.433828 	 5.159885 
O 	 1.606651 	 -2.188456 	 -5.902250 
O 	 5.459251 	 2.497820 	 -3.962020 
O 	 -1.868987 	 -6.149909 	 5.303931 
O 	 -5.520928 	 -5.028336 	 6.308540 
O 	 -6.658511 	 1.333276 	 2.077525 
O 	 3.988810 	 7.474933 	 -3.995439 
O 	 2.640678 	 1.628161 	 -0.777179 
K 	 -2.480999 	 4.348055 	 0.930580 
