333
conformation = 13
H 	 -2.947052 	 6.833074 	 -4.259126 
H 	 -2.508448 	 -6.785532 	 -3.662566 
H 	 -6.401365 	 4.134471 	 0.954307 
H 	 -5.304151 	 3.084502 	 0.369508 
H 	 -0.672413 	 7.026626 	 3.249278 
H 	 -1.076894 	 -7.084839 	 1.993074 
H 	 -5.359808 	 -7.103854 	 -5.878185 
H 	 -3.829633 	 -6.958310 	 -5.860977 
H 	 -1.889362 	 5.366176 	 6.042269 
H 	 -2.406517 	 5.714082 	 4.671878 
H 	 -4.308126 	 4.941417 	 3.879360 
H 	 -3.817388 	 6.329984 	 3.406206 
H 	 1.500120 	 3.249819 	 -5.911138 
H 	 1.020133 	 4.659152 	 -6.201388 
H 	 -2.340996 	 -0.802130 	 3.982678 
H 	 -0.845689 	 -0.411149 	 3.490408 
H 	 1.241776 	 5.055113 	 -2.095653 
H 	 0.755334 	 5.786991 	 -0.785527 
H 	 -0.813610 	 -2.749579 	 3.600517 
H 	 0.477600 	 -3.594125 	 3.870715 
H 	 -7.503170 	 -7.104778 	 -4.679785 
H 	 7.097089 	 -5.890647 	 -5.594770 
H 	 1.674133 	 -0.818892 	 3.935904 
H 	 1.049650 	 0.477696 	 3.127598 
H 	 6.357487 	 -2.685701 	 3.077329 
H 	 6.229881 	 -2.188699 	 4.582774 
H 	 -4.212382 	 -1.247950 	 5.463037 
H 	 -3.177369 	 -0.138826 	 6.241847 
H 	 5.341393 	 -7.128242 	 -0.720182 
H 	 4.190575 	 -6.180862 	 -0.462388 
H 	 -4.545647 	 -6.405097 	 3.480414 
H 	 -3.242360 	 -6.526771 	 4.235856 
H 	 -7.584811 	 5.830614 	 2.173370 
H 	 6.388169 	 4.586577 	 2.068206 
H 	 -0.452018 	 2.071495 	 0.063321 
H 	 -1.665189 	 1.352321 	 -0.420069 
H 	 2.198474 	 1.907917 	 -4.124699 
H 	 0.847083 	 1.084592 	 -3.780197 
H 	 4.065857 	 0.720949 	 -1.753946 
H 	 5.187896 	 1.140241 	 -2.727883 
H 	 1.832564 	 -4.791759 	 -3.877617 
H 	 2.170084 	 -4.165974 	 -2.449261 
H 	 5.506767 	 -1.546723 	 -2.032090 
H 	 5.688385 	 -3.055700 	 -2.287460 
H 	 -2.980742 	 4.347510 	 -4.082294 
H 	 -4.305241 	 4.756490 	 -4.778784 
H 	 -1.400947 	 -6.252825 	 -7.381174 
H 	 -1.511402 	 -6.417544 	 -5.826544 
H 	 5.818887 	 3.844942 	 5.999079 
H 	 5.391092 	 3.957881 	 -7.465707 
H 	 5.296424 	 7.576462 	 3.113624 
H 	 4.159743 	 -6.319457 	 2.560923 
H 	 2.999835 	 -3.977246 	 1.424018 
H 	 2.140414 	 -4.802194 	 2.432901 
H 	 5.395462 	 -5.275484 	 -3.003719 
H 	 3.992728 	 -4.807081 	 -3.537667 
H 	 -3.192030 	 -3.619960 	 -0.807412 
H 	 -3.254262 	 -3.193604 	 0.716110 
H 	 -2.996912 	 1.986956 	 -3.032827 
H 	 -3.351971 	 2.511782 	 -1.604262 
H 	 -6.570720 	 -6.717433 	 2.236263 
H 	 -5.748846 	 7.228365 	 1.460606 
H 	 -3.418337 	 1.377043 	 4.320558 
H 	 -4.144185 	 2.726065 	 4.471661 
H 	 -4.821985 	 6.776460 	 -1.469036 
H 	 -5.127307 	 5.831537 	 -2.595886 
H 	 -2.496615 	 -1.324528 	 0.082394 
H 	 -2.005366 	 -0.538838 	 1.447627 
H 	 -1.466287 	 3.829877 	 -6.804393 
H 	 -2.935352 	 4.152577 	 -6.836671 
H 	 -6.387504 	 3.517676 	 -5.103057 
H 	 -7.027156 	 5.014463 	 -5.053032 
H 	 -0.860056 	 3.265765 	 -2.823143 
H 	 -0.523694 	 3.591265 	 -4.330835 
H 	 4.540115 	 4.587775 	 -2.115463 
H 	 5.892168 	 3.944571 	 -2.029116 
H 	 4.642041 	 1.238994 	 4.675693 
H 	 4.744615 	 0.930309 	 3.199908 
H 	 -5.853747 	 -0.170033 	 1.368497 
H 	 -6.731757 	 -1.407325 	 1.299757 
H 	 3.643769 	 -3.530200 	 -0.661243 
H 	 4.917793 	 -3.808314 	 0.287197 
H 	 -6.433182 	 2.001043 	 5.470819 
H 	 -5.747412 	 0.615269 	 5.685021 
H 	 -0.417274 	 -2.511926 	 5.832964 
H 	 0.047798 	 -3.470103 	 6.928496 
H 	 -3.712106 	 -6.865213 	 1.246794 
H 	 -4.232209 	 -6.605679 	 -0.196146 
H 	 4.609957 	 -1.196942 	 2.796231 
H 	 3.751481 	 -0.754742 	 1.666638 
H 	 6.705154 	 5.824684 	 -3.112995 
H 	 5.556051 	 6.509202 	 -4.090261 
H 	 -1.749864 	 -4.776791 	 0.745993 
H 	 -0.495686 	 -5.408103 	 -0.070244 
H 	 0.813353 	 -3.175013 	 1.548618 
H 	 -0.467077 	 -3.178830 	 0.768793 
H 	 4.546634 	 2.510302 	 -4.289984 
H 	 3.186317 	 2.094306 	 -5.847246 
H 	 -0.802696 	 -0.759474 	 -4.832206 
H 	 -0.854379 	 0.522744 	 -5.727410 
H 	 1.539517 	 7.089823 	 -6.899103 
H 	 0.061594 	 6.983819 	 -6.491554 
H 	 -7.626647 	 -3.939587 	 0.314329 
H 	 6.524607 	 -2.575175 	 -0.025306 
H 	 -6.379913 	 1.233377 	 -3.785833 
H 	 -5.119236 	 1.856538 	 -3.174828 
H 	 7.076150 	 -1.760134 	 -4.480999 
H 	 5.831716 	 -2.831474 	 -4.322121 
H 	 5.087700 	 2.892389 	 0.903841 
H 	 4.980182 	 4.252145 	 0.061739 
H 	 -5.556806 	 -4.551721 	 3.605530 
H 	 -6.876000 	 -5.320059 	 4.177842 
H 	 -2.596993 	 5.910385 	 -1.959662 
H 	 -1.097980 	 5.257983 	 -1.563047 
H 	 7.213570 	 -6.415308 	 -2.138152 
H 	 -7.323152 	 -5.278357 	 -3.133896 
H 	 6.702797 	 6.160935 	 -0.863033 
H 	 -7.491527 	 7.263973 	 0.118529 
H 	 5.966938 	 1.073445 	 -0.497594 
H 	 5.448092 	 0.443593 	 0.807106 
H 	 3.097640 	 -2.746742 	 7.140850 
H 	 3.564102 	 -4.213891 	 6.531819 
H 	 6.845129 	 -0.185653 	 5.579644 
H 	 5.949813 	 -0.890221 	 6.575332 
H 	 -4.229070 	 -5.342200 	 -2.136493 
H 	 -5.606171 	 -4.986662 	 -1.352103 
H 	 2.288120 	 -1.931277 	 -0.828516 
H 	 2.783827 	 -1.997982 	 -2.308348 
H 	 1.480710 	 -5.855567 	 -1.527837 
H 	 1.564551 	 -6.956094 	 -0.417225 
H 	 2.555708 	 0.724500 	 6.683290 
H 	 4.040029 	 0.697818 	 7.231334 
H 	 4.301131 	 -5.895221 	 -7.399702 
H 	 3.670878 	 -6.869069 	 6.438907 
H 	 -0.984743 	 0.715024 	 6.704707 
H 	 -2.255254 	 1.704905 	 6.742698 
H 	 -2.188091 	 -5.457905 	 -1.494236 
H 	 -1.287906 	 -6.616911 	 -1.917335 
H 	 2.282611 	 4.165010 	 -3.857244 
H 	 2.900979 	 5.636926 	 -3.657948 
H 	 0.804771 	 -5.309037 	 -5.928701 
H 	 1.447081 	 -3.881617 	 -5.645392 
H 	 -4.518563 	 -2.506060 	 2.317498 
H 	 -3.235861 	 -2.722467 	 2.938015 
H 	 1.022167 	 2.657714 	 1.908359 
H 	 -0.242709 	 2.280056 	 2.560426 
H 	 6.942035 	 5.900623 	 4.281076 
H 	 6.674924 	 6.414042 	 5.778414 
H 	 1.580924 	 3.447209 	 5.575802 
H 	 0.432444 	 3.691379 	 6.577494 
H 	 1.662282 	 5.973315 	 5.434782 
H 	 0.413078 	 5.673892 	 4.783682 
H 	 -6.795351 	 1.269691 	 -6.353536 
H 	 7.120611 	 2.362689 	 -6.946322 
H 	 -6.444046 	 3.590616 	 -2.574456 
H 	 -6.385610 	 4.365236 	 -1.205039 
H 	 -2.181260 	 -2.930113 	 -7.400462 
H 	 -2.706514 	 -3.850118 	 -6.297741 
H 	 4.077295 	 5.803792 	 7.324361 
H 	 4.099634 	 5.079846 	 6.026163 
H 	 2.373302 	 -0.041536 	 -3.525747 
H 	 3.681594 	 -0.803835 	 -3.995455 
H 	 -3.581789 	 1.187527 	 0.741505 
H 	 -4.575234 	 1.806872 	 1.873093 
H 	 0.724194 	 0.093665 	 5.626993 
H 	 0.675362 	 -0.668757 	 6.913388 
H 	 1.624382 	 7.572986 	 2.387763 
H 	 2.051255 	 -6.934329 	 3.845135 
H 	 -1.885352 	 2.824306 	 3.584043 
H 	 -0.572094 	 3.244519 	 4.344866 
H 	 -4.013162 	 0.510844 	 -6.257449 
H 	 -4.823642 	 -0.634403 	 -6.763755 
H 	 6.297625 	 -4.540733 	 4.668941 
H 	 6.115134 	 -6.132380 	 4.660665 
H 	 -5.656698 	 -0.704893 	 -3.500204 
H 	 -5.718896 	 -0.534684 	 -4.974368 
H 	 -5.323338 	 -3.805975 	 -4.880527 
H 	 -5.178859 	 -5.218089 	 -4.241835 
H 	 -4.088813 	 -0.098988 	 -1.787216 
H 	 -4.972982 	 -0.787932 	 -0.792685 
H 	 5.285901 	 4.916754 	 -5.297817 
H 	 3.858440 	 4.247585 	 -5.464923 
H 	 -7.007815 	 -2.857815 	 -6.237687 
H 	 -5.789246 	 -2.851388 	 -7.277023 
H 	 -6.536956 	 4.163432 	 4.164866 
H 	 -5.757286 	 4.513575 	 5.564768 
H 	 1.729633 	 5.485875 	 1.221641 
H 	 0.306592 	 6.266107 	 1.396338 
H 	 -2.357069 	 -2.084499 	 -3.906422 
H 	 -2.780703 	 -1.801228 	 -5.305951 
H 	 -5.562737 	 5.119335 	 -6.988495 
H 	 -4.995063 	 6.195280 	 7.009794 
H 	 6.514165 	 -4.655550 	 -7.456650 
H 	 5.729155 	 -4.242622 	 -6.250717 
H 	 -5.353805 	 -3.285417 	 5.351899 
H 	 -6.461617 	 -2.468979 	 4.645945 
H 	 6.121745 	 0.353891 	 -6.498150 
H 	 5.489666 	 -1.082295 	 -6.111657 
H 	 1.132016 	 -1.026873 	 0.946823 
H 	 1.933413 	 0.239937 	 0.275417 
H 	 2.879815 	 -2.624364 	 3.458725 
H 	 3.399408 	 -2.290545 	 4.897729 
H 	 2.433767 	 4.285948 	 3.514196 
H 	 3.353872 	 4.125308 	 2.344029 
H 	 1.920858 	 -5.697224 	 6.503524 
H 	 1.650227 	 -5.564706 	 4.955526 
H 	 3.556608 	 2.787982 	 5.914421 
H 	 3.916730 	 3.074797 	 4.385027 
H 	 0.921566 	 -1.537254 	 -6.225553 
H 	 2.068479 	 -1.593985 	 -5.204918 
H 	 6.140079 	 2.267351 	 -4.423765 
H 	 2.150711 	 1.821127 	 -1.574720 
H 	 -1.009875 	 -5.741715 	 5.136874 
H 	 -1.793132 	 -7.099954 	 5.411928 
H 	 -4.931521 	 -5.280674 	 6.997858 
H 	 -6.140167 	 -5.708130 	 6.005015 
H 	 -6.675155 	 1.155195 	 3.069577 
H 	 -7.535358 	 1.391684 	 1.762169 
H 	 3.958221 	 -6.923241 	 -3.133238 
H 	 3.783921 	 -6.779212 	 -4.588298 
H 	 3.101160 	 2.433573 	 -0.409792 
O 	 -2.640536 	 7.703587 	 -4.553783 
O 	 -5.745025 	 3.992564 	 0.257541 
O 	 -0.964710 	 6.864650 	 2.300770 
O 	 -4.603194 	 -7.102282 	 -6.455627 
O 	 -1.684396 	 5.961867 	 5.278529 
O 	 -3.671360 	 5.340324 	 3.296120 
O 	 0.679957 	 3.729771 	 -6.140100 
O 	 -1.682176 	 -0.888340 	 3.231140 
O 	 0.551749 	 5.043423 	 -1.408983 
O 	 -0.388759 	 -3.375704 	 4.229553 
O 	 -7.053825 	 -6.349357 	 -5.130426 
O 	 0.996417 	 -0.119861 	 3.925229 
O 	 6.589498 	 -2.906211 	 4.005582 
O 	 -3.600008 	 -0.448717 	 5.402065 
O 	 4.379070 	 -7.003510 	 -0.919347 
O 	 -3.682275 	 -6.879074 	 3.439347 
O 	 7.148956 	 4.999492 	 2.641192 
O 	 -1.150573 	 2.157992 	 -0.593730 
O 	 1.681241 	 1.319945 	 -3.339708 
O 	 4.958651 	 0.449411 	 -2.093871 
O 	 2.238914 	 -5.009032 	 -2.977350 
O 	 6.150489 	 -2.253824 	 -2.078192 
O 	 -3.354482 	 4.766148 	 -4.894463 
O 	 -1.006439 	 -5.976929 	 -6.549782 
O 	 6.090954 	 3.582669 	 6.906541 
O 	 5.102876 	 -6.375174 	 2.868199 
O 	 2.362639 	 -3.834021 	 2.231140 
O 	 4.990318 	 -4.729219 	 -3.723733 
O 	 -2.647298 	 -3.340213 	 -0.028886 
O 	 -3.592831 	 1.830151 	 -2.240182 
O 	 -6.695385 	 7.353699 	 1.777680 
O 	 -3.236283 	 2.314196 	 4.501007 
O 	 -4.522193 	 6.577733 	 -2.382423 
O 	 -2.333350 	 -0.434600 	 0.480286 
O 	 -2.218682 	 3.929826 	 -7.474975 
O 	 -6.208180 	 4.505155 	 -5.323317 
O 	 -1.207875 	 3.264668 	 -3.711804 
O 	 5.323218 	 4.580438 	 -1.535766 
O 	 5.117831 	 1.561233 	 3.826088 
O 	 -5.809981 	 -1.152159 	 1.305165 
O 	 4.018863 	 -4.143939 	 -0.001765 
O 	 -6.599871 	 1.059468 	 5.331720 
O 	 -0.361100 	 -2.565260 	 6.851387 
O 	 -4.136091 	 7.608779 	 0.490858 
O 	 4.675003 	 -0.653561 	 1.975823 
O 	 6.385740 	 6.002167 	 -4.055035 
O 	 -0.892707 	 -5.275228 	 0.862277 
O 	 0.129069 	 -2.537411 	 1.183834 
O 	 3.008024 	 2.598904 	 -5.028620 
O 	 -0.189373 	 -0.031659 	 -5.228237 
O 	 0.824306 	 6.439476 	 -6.787101 
O 	 6.831213 	 -3.202250 	 0.668570 
O 	 -5.889187 	 2.115299 	 -3.692644 
O 	 6.332314 	 -2.297415 	 -4.962631 
O 	 4.883803 	 3.863804 	 0.993341 
O 	 -6.160460 	 -5.322875 	 3.427766 
O 	 -2.051704 	 5.320614 	 -1.336641 
O 	 -7.662051 	 -5.423803 	 -2.215975 
O 	 7.094659 	 7.075601 	 -0.833196 
O 	 5.953277 	 1.236148 	 0.472490 
O 	 3.640030 	 -3.237567 	 6.455362 
O 	 6.184953 	 -0.884068 	 5.585825 
O 	 -4.618434 	 -4.985348 	 -1.326533 
O 	 2.513177 	 -2.605905 	 -1.571250 
O 	 0.951694 	 -6.435363 	 -0.915685 
O 	 3.311419 	 1.317319 	 6.929879 
O 	 3.456131 	 -6.311674 	 7.225979 
O 	 -1.922610 	 0.831610 	 7.001631 
O 	 -1.872846 	 -5.923532 	 -2.275402 
O 	 2.544559 	 4.832445 	 -3.181313 
O 	 1.575582 	 -4.858137 	 -5.604992 
O 	 -3.845357 	 -3.198453 	 2.345448 
O 	 0.382719 	 1.894507 	 1.930037 
O 	 6.955695 	 6.691935 	 4.868677 
O 	 0.607045 	 3.677547 	 5.630153 
O 	 1.102961 	 6.356198 	 4.724553 
O 	 7.220672 	 1.667677 	 -6.249066 
O 	 -6.604145 	 4.447896 	 -2.158349 
O 	 -2.974760 	 -3.038099 	 -6.759948 
O 	 4.106536 	 5.972509 	 6.382376 
O 	 2.740780 	 -0.993708 	 -3.822970 
O 	 -4.087192 	 1.981344 	 1.020731 
O 	 0.804737 	 0.225870 	 6.574724 
O 	 1.845663 	 -6.510294 	 2.976376 
O 	 -1.101183 	 3.414308 	 3.483287 
O 	 -4.880374 	 0.328778 	 -6.582969 
O 	 6.599601 	 -5.367210 	 5.084264 
O 	 -6.341922 	 -0.671527 	 -4.215572 
O 	 -4.819617 	 -4.329745 	 -4.220763 
O 	 -4.728579 	 -0.846345 	 -1.758718 
O 	 4.514765 	 4.847341 	 -5.938426 
O 	 -6.058911 	 -2.586798 	 -6.396053 
O 	 -5.784321 	 3.893349 	 4.719358 
O 	 1.271857 	 6.336140 	 1.002495 
O 	 -2.422404 	 -1.363669 	 -4.529320 
O 	 -5.224859 	 5.217817 	 6.997785 
O 	 6.078833 	 -5.017926 	 -6.689653 
O 	 -5.528655 	 -2.396027 	 4.980979 
O 	 5.442907 	 -0.330581 	 -6.748345 
O 	 1.989119 	 -0.671625 	 0.585235 
O 	 3.103741 	 -1.878637 	 4.041121 
O 	 2.424981 	 4.192782 	 2.536844 
O 	 1.221207 	 -5.411316 	 5.828678 
O 	 3.480078 	 3.483153 	 5.177508 
O 	 1.546126 	 -2.140268 	 -5.837012 
O 	 5.404690 	 2.478940 	 -3.796689 
O 	 -1.891257 	 -6.118467 	 5.364900 
O 	 -5.542682 	 -4.963341 	 6.302694 
O 	 -6.646303 	 1.333329 	 2.144261 
O 	 3.930533 	 7.413588 	 -3.919252 
O 	 2.712031 	 1.613488 	 -0.815317 
K 	 -2.464136 	 4.374262 	 0.983779 
