333
conformation = 24
H 	 -2.799103 	 6.762119 	 -4.346511 
H 	 -2.721032 	 -6.666850 	 -3.711919 
H 	 -6.332592 	 3.916512 	 1.041461 
H 	 -5.182823 	 3.211914 	 0.340240 
H 	 -0.760556 	 6.853576 	 3.208699 
H 	 -1.236074 	 -7.102316 	 1.993322 
H 	 -5.381790 	 -7.037847 	 -5.809550 
H 	 -3.821121 	 -7.003424 	 -5.973783 
H 	 -1.834539 	 5.422713 	 6.100962 
H 	 -2.426180 	 5.608595 	 4.650420 
H 	 -4.406168 	 4.826543 	 3.776848 
H 	 -3.819316 	 6.337972 	 3.417526 
H 	 1.354749 	 3.160123 	 -5.709724 
H 	 0.900582 	 4.623825 	 -6.146357 
H 	 -2.286697 	 -0.885157 	 4.045039 
H 	 -0.918956 	 -0.386910 	 3.586719 
H 	 1.127510 	 5.106307 	 -2.135112 
H 	 0.610741 	 5.846167 	 -0.768061 
H 	 -0.763823 	 -2.699841 	 3.544249 
H 	 0.435200 	 -3.462208 	 3.816095 
H 	 -7.582865 	 -7.159521 	 -4.674515 
H 	 7.119634 	 -5.816489 	 -5.597734 
H 	 1.758829 	 -0.707008 	 3.878215 
H 	 1.024882 	 0.449944 	 3.109923 
H 	 6.275949 	 -2.686937 	 3.066765 
H 	 6.305741 	 -2.155732 	 4.577241 
H 	 -4.241924 	 -1.099492 	 5.688337 
H 	 -3.152225 	 -0.049905 	 6.179804 
H 	 5.277922 	 7.702377 	 -0.897858 
H 	 4.235591 	 -6.146425 	 -0.435599 
H 	 -4.567685 	 -6.259745 	 3.417221 
H 	 -3.101756 	 -6.449487 	 4.120503 
H 	 -7.613778 	 5.914785 	 2.266888 
H 	 6.354871 	 4.566809 	 2.137916 
H 	 -0.443773 	 2.173151 	 0.053951 
H 	 -1.497615 	 1.261634 	 -0.440540 
H 	 2.134589 	 1.748929 	 -4.090392 
H 	 0.768228 	 0.917838 	 -3.609662 
H 	 4.057808 	 0.669478 	 -1.772046 
H 	 5.176271 	 1.112161 	 -2.778009 
H 	 1.827787 	 -4.917751 	 -3.857279 
H 	 2.188284 	 -4.146167 	 -2.531328 
H 	 5.470155 	 -1.514055 	 -2.034397 
H 	 5.620455 	 -3.111745 	 -2.220314 
H 	 -3.045479 	 4.233985 	 -4.041491 
H 	 -4.349714 	 4.708813 	 -4.789926 
H 	 -1.454310 	 -6.336660 	 -7.333112 
H 	 -1.498794 	 -6.400054 	 -5.707983 
H 	 5.772786 	 3.689208 	 5.931476 
H 	 5.395669 	 3.963470 	 -7.399491 
H 	 5.090049 	 7.606229 	 3.186169 
H 	 4.151096 	 -6.313132 	 2.442559 
H 	 2.919762 	 -3.756676 	 1.461416 
H 	 2.131272 	 -4.730871 	 2.441787 
H 	 5.329334 	 -5.183692 	 -2.935604 
H 	 3.964205 	 -4.652102 	 -3.537537 
H 	 -3.355063 	 -3.565279 	 -0.739644 
H 	 -3.291395 	 -3.285865 	 0.767029 
H 	 -2.924189 	 1.952332 	 -2.946710 
H 	 -3.399801 	 2.568852 	 -1.697321 
H 	 -6.642709 	 -6.701627 	 2.378019 
H 	 -5.802756 	 7.310794 	 1.352160 
H 	 -3.493224 	 1.363364 	 4.424420 
H 	 -4.103846 	 2.737166 	 4.614141 
H 	 -4.796312 	 6.699477 	 -1.437621 
H 	 -5.187670 	 5.762862 	 -2.598757 
H 	 -2.753495 	 -1.304137 	 0.100556 
H 	 -2.167891 	 -0.726466 	 1.393935 
H 	 -1.393289 	 3.749510 	 -7.004844 
H 	 -2.873549 	 4.096090 	 -6.810900 
H 	 -6.415199 	 3.527152 	 -5.052537 
H 	 -7.070617 	 5.029941 	 -5.169186 
H 	 -0.840614 	 3.112317 	 -2.879906 
H 	 -0.600599 	 3.653899 	 -4.324096 
H 	 4.493107 	 4.727664 	 -2.096795 
H 	 5.785336 	 3.853034 	 -2.039227 
H 	 4.747079 	 1.202675 	 4.677414 
H 	 4.714652 	 0.997869 	 3.145621 
H 	 -5.853201 	 -0.250200 	 1.422200 
H 	 -6.816594 	 -1.463358 	 1.246516 
H 	 3.752480 	 -3.368198 	 -0.531608 
H 	 4.954895 	 -3.995343 	 0.240618 
H 	 -6.428858 	 1.991374 	 5.474068 
H 	 -5.819168 	 0.538567 	 5.693035 
H 	 -0.304948 	 -2.671734 	 5.851216 
H 	 -0.025554 	 -3.543975 	 6.997524 
H 	 -3.711336 	 -6.796381 	 1.271915 
H 	 -4.283063 	 -6.548872 	 -0.153764 
H 	 4.543363 	 -1.032870 	 2.810633 
H 	 3.660850 	 -0.640262 	 1.575235 
H 	 6.596112 	 5.863943 	 -3.108274 
H 	 5.499529 	 6.497172 	 -4.136568 
H 	 -1.723318 	 -4.712700 	 0.656611 
H 	 -0.554651 	 -5.411506 	 0.029511 
H 	 0.836554 	 -3.157455 	 1.359376 
H 	 -0.618998 	 -3.102027 	 0.863992 
H 	 4.506610 	 2.482927 	 -4.400807 
H 	 3.064096 	 2.153793 	 -5.890333 
H 	 -0.848809 	 -0.748577 	 -5.066294 
H 	 -0.685254 	 0.548696 	 -5.853087 
H 	 1.461597 	 7.133566 	 -6.906763 
H 	 -0.008842 	 7.044807 	 -6.704938 
H 	 7.153041 	 -4.004552 	 0.303225 
H 	 6.483659 	 -2.796250 	 -0.189678 
H 	 -6.520385 	 1.254850 	 -3.853310 
H 	 -5.255234 	 1.763045 	 -3.080029 
H 	 7.003819 	 -1.822654 	 -4.441448 
H 	 5.809104 	 -2.823047 	 -4.362324 
H 	 5.064393 	 2.916243 	 0.766651 
H 	 5.083084 	 4.274643 	 0.221604 
H 	 -5.632314 	 -4.524186 	 3.552648 
H 	 -6.917220 	 -5.286548 	 4.047335 
H 	 -2.582026 	 5.982234 	 -1.932896 
H 	 -1.181836 	 5.159381 	 -1.608434 
H 	 7.094407 	 -6.401652 	 -2.138312 
H 	 -7.310861 	 -5.254430 	 -3.051580 
H 	 6.572310 	 6.240789 	 -0.922306 
H 	 -7.568016 	 7.153232 	 0.097565 
H 	 5.855856 	 1.064829 	 -0.508804 
H 	 5.454766 	 0.543027 	 0.901934 
H 	 3.223920 	 -2.853309 	 7.294400 
H 	 3.377234 	 -4.142967 	 6.641840 
H 	 6.843360 	 -0.155340 	 5.585604 
H 	 5.815912 	 -0.880607 	 6.529596 
H 	 -4.475417 	 -5.329151 	 -2.202990 
H 	 -5.619848 	 -5.131685 	 -1.260498 
H 	 2.093206 	 -1.928325 	 -0.871974 
H 	 2.674274 	 -1.988764 	 -2.341522 
H 	 1.477022 	 -6.174293 	 -1.634627 
H 	 1.481413 	 -6.948763 	 -0.236309 
H 	 2.480968 	 0.776861 	 6.785266 
H 	 4.023152 	 0.677371 	 7.030058 
H 	 4.234924 	 -5.958427 	 -7.305079 
H 	 3.701455 	 -7.095107 	 6.632122 
H 	 -1.003247 	 0.792539 	 6.882677 
H 	 -2.209693 	 1.806950 	 6.812374 
H 	 -2.193739 	 -5.442236 	 -1.505995 
H 	 -1.293127 	 -6.591731 	 -1.856269 
H 	 2.311149 	 4.166837 	 -3.857483 
H 	 2.798145 	 5.566097 	 -3.737732 
H 	 0.761170 	 -5.333221 	 -5.939137 
H 	 1.399694 	 -3.880021 	 -5.855564 
H 	 -4.616931 	 -2.505920 	 2.274987 
H 	 -3.193905 	 -2.835295 	 2.826571 
H 	 1.062982 	 2.555791 	 1.964115 
H 	 -0.340732 	 2.395768 	 2.513272 
H 	 6.911707 	 5.899419 	 4.361044 
H 	 6.601436 	 6.485515 	 5.752010 
H 	 1.534294 	 3.575170 	 5.625057 
H 	 0.309673 	 3.788618 	 6.552465 
H 	 1.656699 	 6.058397 	 5.441740 
H 	 0.245039 	 5.779027 	 4.730980 
H 	 -6.772908 	 1.295187 	 -6.404385 
H 	 7.004543 	 2.262997 	 -6.991017 
H 	 -6.817513 	 3.606750 	 -2.541648 
H 	 -6.335599 	 4.221138 	 -1.227107 
H 	 -2.320187 	 -3.111493 	 -7.404868 
H 	 -2.789372 	 -3.774993 	 -6.208567 
H 	 3.966109 	 5.807508 	 7.314080 
H 	 4.076743 	 5.124398 	 5.937055 
H 	 2.280554 	 -0.087162 	 -3.630531 
H 	 3.661204 	 -0.801790 	 -3.768134 
H 	 -3.645122 	 1.120606 	 0.754766 
H 	 -4.545368 	 1.680345 	 1.812962 
H 	 0.663898 	 0.146405 	 5.513566 
H 	 0.462380 	 -0.634271 	 6.956511 
H 	 1.716559 	 7.579313 	 2.411462 
H 	 1.852950 	 -6.888487 	 3.890544 
H 	 -1.967432 	 2.922111 	 3.617291 
H 	 -0.600795 	 3.344783 	 4.367055 
H 	 -3.993386 	 0.604734 	 -6.415592 
H 	 -4.888766 	 -0.604805 	 -6.736286 
H 	 6.233809 	 -4.508808 	 4.644519 
H 	 6.042733 	 -6.005732 	 4.634903 
H 	 -5.906725 	 -0.779705 	 -3.294353 
H 	 -5.759529 	 -0.472178 	 -4.949557 
H 	 -5.459819 	 -3.850003 	 -4.878609 
H 	 -5.214572 	 -5.173439 	 -4.327597 
H 	 -4.230273 	 -0.067632 	 -1.896382 
H 	 -5.285821 	 -0.824405 	 -0.875864 
H 	 5.293045 	 5.034648 	 -5.465204 
H 	 3.952353 	 4.228502 	 -5.316522 
H 	 -7.063247 	 -2.798959 	 -6.230778 
H 	 -5.865325 	 -2.827079 	 -7.232594 
H 	 -6.524825 	 4.220038 	 4.181540 
H 	 -5.762418 	 4.493184 	 5.542640 
H 	 1.641905 	 5.514458 	 1.366359 
H 	 0.374394 	 6.374473 	 1.456134 
H 	 -2.504726 	 -2.137741 	 -3.900395 
H 	 -2.850766 	 -1.668094 	 -5.327653 
H 	 -5.661268 	 4.929274 	 -7.071560 
H 	 -5.164637 	 6.221686 	 6.952588 
H 	 6.478511 	 -4.683551 	 -7.499853 
H 	 5.672833 	 -4.201578 	 -6.331575 
H 	 -5.439771 	 -3.234266 	 5.499110 
H 	 -6.473441 	 -2.464063 	 4.669846 
H 	 6.075022 	 0.321914 	 -6.527048 
H 	 5.568028 	 -1.063492 	 -6.039697 
H 	 1.032029 	 -1.030524 	 0.750483 
H 	 1.799064 	 0.269338 	 0.246853 
H 	 2.869355 	 -2.633781 	 3.451669 
H 	 3.387011 	 -2.383972 	 4.891734 
H 	 2.341364 	 4.265408 	 3.563504 
H 	 3.270663 	 4.153359 	 2.220963 
H 	 1.905942 	 -5.735430 	 6.562599 
H 	 1.569957 	 -5.565632 	 4.979563 
H 	 3.552578 	 2.779359 	 5.879294 
H 	 3.746477 	 2.978186 	 4.391819 
H 	 0.828571 	 -1.537456 	 -6.167528 
H 	 2.040864 	 -1.644249 	 -5.187788 
H 	 6.136942 	 2.602115 	 -4.483714 
H 	 2.053289 	 1.895725 	 -1.521661 
H 	 -1.076901 	 -5.693541 	 5.190581 
H 	 -1.713713 	 -7.118972 	 5.409170 
H 	 -5.081119 	 -5.537062 	 7.009921 
H 	 -6.277278 	 -5.614345 	 6.014151 
H 	 -6.880854 	 1.227248 	 3.102373 
H 	 -7.606406 	 1.331380 	 1.638474 
H 	 3.933657 	 -6.959006 	 -3.032422 
H 	 3.769773 	 -6.868537 	 -4.686512 
H 	 2.951155 	 2.465934 	 -0.390193 
O 	 -2.689313 	 -7.174638 	 -4.536289 
O 	 -5.781255 	 4.021572 	 0.267744 
O 	 -0.965015 	 6.888433 	 2.232883 
O 	 -4.674424 	 -7.129001 	 -6.485474 
O 	 -1.757353 	 5.996869 	 5.297753 
O 	 -3.720250 	 5.356560 	 3.296796 
O 	 0.624272 	 3.678220 	 -6.125876 
O 	 -1.710652 	 -0.908793 	 3.236276 
O 	 0.501379 	 5.040908 	 -1.395733 
O 	 -0.461594 	 -3.343301 	 4.213779 
O 	 -7.128494 	 -6.408490 	 -5.130364 
O 	 0.947307 	 -0.131659 	 3.920738 
O 	 6.572739 	 -2.911018 	 3.995199 
O 	 -3.644030 	 -0.394966 	 5.372925 
O 	 4.304518 	 -6.968090 	 -0.963323 
O 	 -3.749297 	 -6.858765 	 3.462358 
O 	 7.101951 	 4.986247 	 2.656626 
O 	 -1.184639 	 2.188318 	 -0.612459 
O 	 1.655259 	 1.310281 	 -3.291802 
O 	 4.976734 	 0.453431 	 -2.064207 
O 	 2.146552 	 -5.040680 	 -2.912164 
O 	 6.105509 	 -2.245235 	 -2.030816 
O 	 -3.374782 	 4.762640 	 -4.871972 
O 	 -1.036702 	 -5.991565 	 -6.514260 
O 	 6.072863 	 3.577695 	 6.851971 
O 	 5.033413 	 -6.388968 	 2.874583 
O 	 2.323037 	 -3.820976 	 2.221686 
O 	 4.925131 	 -4.790495 	 -3.717305 
O 	 -2.693846 	 -3.392095 	 -0.026198 
O 	 -3.672240 	 1.844315 	 -2.308298 
O 	 -6.693590 	 7.362947 	 1.793572 
O 	 -3.271107 	 2.317177 	 4.515752 
O 	 -4.635505 	 6.539690 	 -2.382266 
O 	 -2.387877 	 -0.456811 	 0.459907 
O 	 -2.227564 	 3.963050 	 -7.485707 
O 	 -6.250518 	 4.520522 	 -5.304714 
O 	 -1.247035 	 3.284734 	 -3.721017 
O 	 5.332397 	 4.610717 	 -1.577172 
O 	 5.050779 	 1.574382 	 3.837815 
O 	 -5.889543 	 -1.203829 	 1.311358 
O 	 4.027245 	 -4.177764 	 0.026088 
O 	 -6.622201 	 1.002274 	 5.345559 
O 	 -0.404172 	 -2.619041 	 6.866407 
O 	 -4.163013 	 7.639109 	 0.522821 
O 	 4.593351 	 -0.639946 	 1.945554 
O 	 6.357957 	 5.973903 	 -4.078622 
O 	 -0.937798 	 -5.253829 	 0.898453 
O 	 0.120323 	 -2.533992 	 1.201563 
O 	 2.945563 	 2.594880 	 -5.016362 
O 	 -0.226918 	 -0.032492 	 -5.199230 
O 	 0.759838 	 6.464273 	 -6.802235 
O 	 6.812234 	 -3.187029 	 0.669269 
O 	 -5.935185 	 2.077648 	 -3.688424 
O 	 6.324954 	 -2.292517 	 -4.958957 
O 	 4.867744 	 3.836756 	 1.015615 
O 	 -6.173940 	 -5.366870 	 3.426437 
O 	 -2.115040 	 5.354670 	 -1.295465 
O 	 7.140971 	 -5.436606 	 -2.217085 
O 	 7.062264 	 7.095550 	 -0.843480 
O 	 5.945569 	 1.251492 	 0.484542 
O 	 3.612650 	 -3.204115 	 6.466410 
O 	 6.137744 	 -0.888379 	 5.590362 
O 	 -4.659479 	 -4.996288 	 -1.281892 
O 	 2.467137 	 -2.574614 	 -1.547325 
O 	 0.926140 	 -6.465788 	 -0.848994 
O 	 3.290005 	 1.289529 	 6.943161 
O 	 3.399425 	 -6.315755 	 7.209894 
O 	 -1.993418 	 0.878596 	 7.014064 
O 	 -1.901551 	 -5.937253 	 -2.254231 
O 	 2.539479 	 4.819617 	 -3.184182 
O 	 1.558229 	 -4.861259 	 -5.611916 
O 	 -3.907625 	 -3.192534 	 2.338681 
O 	 0.372826 	 1.876436 	 1.955238 
O 	 6.879783 	 6.709184 	 4.874110 
O 	 0.566995 	 3.693616 	 5.632029 
O 	 1.049526 	 6.332907 	 4.738529 
O 	 -7.723110 	 1.637144 	 -6.277706 
O 	 -6.632073 	 4.475707 	 -2.122891 
O 	 -3.054379 	 -3.039089 	 -6.735345 
O 	 4.044816 	 5.988708 	 6.373793 
O 	 2.709034 	 -0.969733 	 -3.839160 
O 	 -4.128801 	 1.947920 	 0.962043 
O 	 0.740131 	 0.210523 	 6.537667 
O 	 1.790213 	 -6.542688 	 2.984422 
O 	 -1.114344 	 3.416052 	 3.487728 
O 	 -4.894476 	 0.347279 	 -6.560073 
O 	 6.588357 	 -5.343161 	 5.126378 
O 	 -6.321381 	 -0.664403 	 -4.189048 
O 	 -4.893057 	 -4.266959 	 -4.222573 
O 	 -4.791191 	 -0.857890 	 -1.758776 
O 	 4.477226 	 4.821169 	 -5.929940 
O 	 -6.147572 	 -2.508234 	 -6.350826 
O 	 -5.793729 	 3.911552 	 4.753830 
O 	 1.286665 	 6.297077 	 0.942041 
O 	 -2.443870 	 -1.368708 	 -4.503351 
O 	 -5.286107 	 5.245296 	 7.002754 
O 	 5.996423 	 -5.010809 	 -6.715088 
O 	 -5.555654 	 -2.369382 	 4.989764 
O 	 5.414203 	 -0.366761 	 -6.745602 
O 	 1.923776 	 -0.692871 	 0.591876 
O 	 3.093308 	 -1.884815 	 4.065217 
O 	 2.373485 	 4.201365 	 2.594783 
O 	 1.196631 	 -5.441624 	 5.891790 
O 	 3.420356 	 3.456253 	 5.195374 
O 	 1.531552 	 -2.162721 	 -5.834434 
O 	 5.390472 	 2.487169 	 -3.859705 
O 	 -1.925675 	 -6.131424 	 5.355503 
O 	 -5.575955 	 -4.996122 	 6.327358 
O 	 -6.696765 	 1.330744 	 2.130981 
O 	 3.915402 	 7.460659 	 -3.935253 
O 	 2.629196 	 1.615559 	 -0.768054 
K 	 -2.517813 	 4.358524 	 0.979817 
