333
conformation = 10
H 	 -2.964061 	 6.825738 	 -4.243663 
H 	 -2.411759 	 -6.785448 	 -3.649261 
H 	 -6.348833 	 4.172321 	 0.970603 
H 	 -5.326901 	 3.048238 	 0.445094 
H 	 -0.619078 	 7.051336 	 3.303566 
H 	 -0.990008 	 -7.105655 	 2.023037 
H 	 -5.351990 	 -7.103406 	 -5.844159 
H 	 -3.794066 	 -6.954165 	 -5.755021 
H 	 -1.849101 	 5.358161 	 6.085266 
H 	 -2.362518 	 5.735861 	 4.678698 
H 	 -4.292749 	 4.970931 	 3.970338 
H 	 -3.798570 	 6.316809 	 3.438218 
H 	 1.557522 	 3.273962 	 -5.917745 
H 	 1.055085 	 4.678928 	 -6.182374 
H 	 -2.315399 	 -0.758285 	 4.007747 
H 	 -0.760647 	 -0.437050 	 3.518483 
H 	 1.317760 	 5.061952 	 -2.022309 
H 	 0.871510 	 5.799851 	 -0.723921 
H 	 -0.775485 	 -2.771092 	 3.670148 
H 	 0.541236 	 -3.634054 	 3.923260 
H 	 -7.453546 	 -7.101073 	 -4.641174 
H 	 7.130520 	 -5.913164 	 -5.564557 
H 	 1.694023 	 -0.847086 	 3.982654 
H 	 1.106610 	 0.490854 	 3.179716 
H 	 6.419833 	 -2.694922 	 3.100927 
H 	 6.264756 	 -2.202575 	 4.619236 
H 	 -4.154539 	 -1.253897 	 5.450549 
H 	 -3.127276 	 -0.180182 	 6.314896 
H 	 5.401206 	 -7.127190 	 -0.635424 
H 	 4.185628 	 -6.166321 	 -0.437322 
H 	 -4.554989 	 -6.440963 	 3.548214 
H 	 -3.211250 	 -6.533871 	 4.307314 
H 	 -7.488152 	 5.861786 	 2.205690 
H 	 6.432451 	 4.574246 	 2.134851 
H 	 -0.396202 	 2.062670 	 0.125398 
H 	 -1.685392 	 1.365010 	 -0.393089 
H 	 2.246532 	 1.919550 	 -4.046047 
H 	 0.852632 	 1.128372 	 -3.799768 
H 	 4.114492 	 0.748683 	 -1.695752 
H 	 5.216396 	 1.139074 	 -2.658506 
H 	 1.856767 	 -4.797769 	 -3.838251 
H 	 2.192348 	 -4.192632 	 -2.388339 
H 	 5.549688 	 -1.551149 	 -2.001674 
H 	 5.691932 	 -3.091474 	 -2.274886 
H 	 -2.874956 	 4.345015 	 -4.019767 
H 	 -4.284361 	 4.778478 	 -4.748374 
H 	 -1.370424 	 -6.221100 	 -7.370953 
H 	 -1.512810 	 -6.441135 	 -5.809355 
H 	 5.879536 	 3.868879 	 6.070045 
H 	 5.390229 	 3.979278 	 -7.383827 
H 	 5.351783 	 7.609745 	 3.112316 
H 	 4.194821 	 -6.356409 	 2.659677 
H 	 3.024712 	 -4.026289 	 1.498970 
H 	 2.190165 	 -4.772058 	 2.473148 
H 	 5.446919 	 -5.268317 	 -2.999111 
H 	 4.055229 	 -4.848907 	 -3.477471 
H 	 -3.137306 	 -3.621205 	 -0.752508 
H 	 -3.209876 	 -3.192098 	 0.754799 
H 	 -2.985298 	 1.985234 	 -2.981079 
H 	 -3.300569 	 2.508973 	 -1.513106 
H 	 -6.554484 	 -6.667186 	 2.286971 
H 	 -5.720536 	 7.179443 	 1.517047 
H 	 -3.362882 	 1.362967 	 4.364116 
H 	 -4.051438 	 2.715447 	 4.481992 
H 	 -4.785953 	 6.784644 	 -1.440672 
H 	 -5.078761 	 5.855531 	 -2.539507 
H 	 -2.372576 	 -1.332895 	 0.140507 
H 	 -1.938423 	 -0.515300 	 1.475711 
H 	 -1.465909 	 3.852948 	 -6.741108 
H 	 -2.889599 	 4.175383 	 -6.842390 
H 	 -6.352042 	 3.501077 	 -5.051072 
H 	 -6.961672 	 4.981607 	 -4.963600 
H 	 -0.807193 	 3.324468 	 -2.784841 
H 	 -0.469107 	 3.549636 	 -4.254451 
H 	 4.552728 	 4.569643 	 -2.063690 
H 	 5.983139 	 3.964800 	 -1.970531 
H 	 4.707145 	 1.250862 	 4.675316 
H 	 4.808310 	 0.915947 	 3.249726 
H 	 -5.856288 	 -0.176834 	 1.426985 
H 	 -6.679737 	 -1.403100 	 1.359646 
H 	 3.621850 	 -3.564445 	 -0.681632 
H 	 4.903443 	 -3.772518 	 0.341693 
H 	 -6.400163 	 2.065396 	 5.509798 
H 	 -5.721714 	 0.647749 	 5.707800 
H 	 -0.432769 	 -2.457983 	 5.876155 
H 	 0.112788 	 -3.450360 	 6.996145 
H 	 -3.659723 	 -6.876294 	 1.303691 
H 	 -4.180262 	 -6.583895 	 -0.142862 
H 	 4.659719 	 -1.218503 	 2.805864 
H 	 3.789108 	 -0.784954 	 1.715584 
H 	 6.734154 	 5.814857 	 -3.069612 
H 	 5.578292 	 6.538078 	 -3.960937 
H 	 -1.700026 	 -4.802083 	 0.814118 
H 	 -0.431624 	 -5.424191 	 0.030978 
H 	 0.833181 	 -3.121031 	 1.642252 
H 	 -0.425969 	 -3.186626 	 0.763037 
H 	 4.586493 	 2.516858 	 -4.235637 
H 	 3.247894 	 2.069020 	 -5.789770 
H 	 -0.729581 	 -0.681265 	 -4.749643 
H 	 -0.852890 	 0.505668 	 -5.637064 
H 	 1.600382 	 7.072275 	 -6.852104 
H 	 0.137517 	 6.953556 	 -6.395880 
H 	 -7.543730 	 -3.918246 	 0.316416 
H 	 6.620598 	 -2.557274 	 0.031473 
H 	 -6.324802 	 1.220429 	 -3.742901 
H 	 -5.037146 	 1.931037 	 -3.155331 
H 	 7.075985 	 -1.789377 	 -4.442099 
H 	 5.919923 	 -2.815249 	 -4.252393 
H 	 5.146419 	 2.924939 	 0.985445 
H 	 4.967718 	 4.179619 	 0.136160 
H 	 -5.501574 	 -4.538957 	 3.650269 
H 	 -6.807556 	 -5.336172 	 4.207822 
H 	 -2.549593 	 5.884093 	 -1.925912 
H 	 -1.037305 	 5.312987 	 -1.541981 
H 	 -7.606885 	 -6.390971 	 -2.063654 
H 	 -7.301743 	 -5.289642 	 -3.084612 
H 	 6.789196 	 6.143440 	 -0.795359 
H 	 -7.441493 	 7.281783 	 0.140382 
H 	 6.023665 	 1.074349 	 -0.477520 
H 	 5.515367 	 0.460082 	 0.834365 
H 	 3.101044 	 -2.773312 	 7.125232 
H 	 3.619054 	 -4.212961 	 6.562030 
H 	 6.926652 	 -0.156408 	 5.574454 
H 	 5.996212 	 -0.913050 	 6.606976 
H 	 -4.170751 	 -5.344048 	 -2.113293 
H 	 -5.538743 	 -4.947898 	 -1.387985 
H 	 2.355557 	 -1.954184 	 -0.768197 
H 	 2.832885 	 -1.999509 	 -2.288750 
H 	 1.511548 	 -5.794776 	 -1.457285 
H 	 1.628662 	 -6.966649 	 -0.419885 
H 	 2.617504 	 0.749323 	 6.724640 
H 	 4.040484 	 0.733947 	 7.337293 
H 	 4.368266 	 -5.891249 	 -7.380128 
H 	 3.726937 	 -6.827639 	 6.444154 
H 	 -0.943137 	 0.726105 	 6.700802 
H 	 -2.190006 	 1.688332 	 6.764547 
H 	 -2.145356 	 -5.480227 	 -1.459456 
H 	 -1.238274 	 -6.612487 	 -1.883947 
H 	 2.338096 	 4.179579 	 -3.792995 
H 	 2.936810 	 5.631267 	 -3.560412 
H 	 0.803861 	 -5.286451 	 -5.892078 
H 	 1.466835 	 -3.858313 	 -5.566318 
H 	 -4.497816 	 -2.512509 	 2.350042 
H 	 -3.222192 	 -2.745253 	 2.984476 
H 	 1.050510 	 2.639079 	 1.931647 
H 	 -0.219207 	 2.267022 	 2.643251 
H 	 6.971221 	 5.914969 	 4.335017 
H 	 6.730402 	 6.380484 	 5.769566 
H 	 1.595276 	 3.414789 	 5.601197 
H 	 0.508545 	 3.655169 	 6.635874 
H 	 1.702462 	 5.971373 	 5.477938 
H 	 0.471535 	 5.654766 	 4.848810 
H 	 -6.718093 	 1.257342 	 -6.302703 
H 	 7.186856 	 2.356988 	 -6.874477 
H 	 -6.279960 	 3.592248 	 -2.532295 
H 	 -6.364418 	 4.385769 	 -1.197034 
H 	 -2.133623 	 -2.837182 	 -7.341836 
H 	 -2.703651 	 -3.837761 	 -6.275981 
H 	 4.152382 	 5.811204 	 -7.522838 
H 	 4.108981 	 5.078176 	 6.067488 
H 	 2.430971 	 -0.054732 	 -3.467851 
H 	 3.706637 	 -0.800426 	 -4.010761 
H 	 -3.544904 	 1.199961 	 0.801944 
H 	 -4.548480 	 1.830284 	 1.906856 
H 	 0.794711 	 0.076967 	 5.648383 
H 	 0.767236 	 -0.703251 	 6.940948 
H 	 1.642165 	 7.616010 	 2.448201 
H 	 2.116991 	 -6.983334 	 3.844218 
H 	 -1.854712 	 2.829640 	 3.672361 
H 	 -0.534014 	 3.249056 	 4.394740 
H 	 -3.991517 	 0.497896 	 -6.167533 
H 	 -4.789198 	 -0.628307 	 -6.733732 
H 	 6.341988 	 -4.503140 	 4.700710 
H 	 6.183055 	 -6.155400 	 4.723864 
H 	 -5.583333 	 -0.716405 	 -3.499549 
H 	 -5.700926 	 -0.559199 	 -4.932352 
H 	 -5.222300 	 -3.805949 	 -4.821416 
H 	 -5.146503 	 -5.227034 	 -4.199490 
H 	 -4.014805 	 -0.110473 	 -1.719610 
H 	 -4.877520 	 -0.802066 	 -0.714869 
H 	 5.272314 	 4.879985 	 -5.232969 
H 	 3.873672 	 4.225044 	 -5.484519 
H 	 -6.927247 	 -2.853747 	 -6.220188 
H 	 -5.755364 	 -2.898995 	 -7.266131 
H 	 -6.500938 	 4.152107 	 4.194378 
H 	 -5.722347 	 4.477428 	 5.581959 
H 	 1.769186 	 5.529928 	 1.235587 
H 	 0.307325 	 6.263949 	 1.451712 
H 	 -2.294906 	 -2.088896 	 -3.840671 
H 	 -2.703461 	 -1.869327 	 -5.250218 
H 	 -5.498927 	 5.170873 	 -6.947567 
H 	 -4.909122 	 6.174815 	 7.093685 
H 	 6.566009 	 -4.681992 	 -7.437317 
H 	 5.779494 	 -4.276246 	 -6.157528 
H 	 -5.287293 	 -3.325921 	 5.373648 
H 	 -6.408258 	 -2.448416 	 4.683456 
H 	 6.154638 	 0.343890 	 -6.433922 
H 	 5.527662 	 -1.087492 	 -6.064165 
H 	 1.225946 	 -1.007791 	 1.014726 
H 	 1.984987 	 0.295254 	 0.307666 
H 	 2.912721 	 -2.633580 	 3.498714 
H 	 3.428533 	 -2.271356 	 4.962832 
H 	 2.467129 	 4.312399 	 3.535102 
H 	 3.415349 	 4.109655 	 2.395975 
H 	 1.971976 	 -5.686826 	 6.538846 
H 	 1.710955 	 -5.556150 	 4.980438 
H 	 3.579519 	 2.795805 	 5.920208 
H 	 4.007814 	 3.083014 	 4.451494 
H 	 0.927361 	 -1.502613 	 -6.193220 
H 	 2.075003 	 -1.596328 	 -5.154901 
H 	 6.131161 	 2.167631 	 -4.366897 
H 	 2.208109 	 1.807216 	 -1.563940 
H 	 -0.975386 	 -5.771255 	 5.171853 
H 	 -1.749177 	 -7.112334 	 5.462801 
H 	 -4.868463 	 -5.247374 	 7.045241 
H 	 -6.045271 	 -5.726222 	 6.077878 
H 	 -6.626891 	 1.124144 	 3.157638 
H 	 -7.543265 	 1.406191 	 1.829940 
H 	 3.989355 	 -6.908544 	 -3.042915 
H 	 3.820061 	 -6.784381 	 -4.501044 
H 	 3.154399 	 2.422436 	 -0.390536 
O 	 -2.592241 	 7.696914 	 -4.507501 
O 	 -5.702474 	 3.986561 	 0.303047 
O 	 -0.932787 	 6.861162 	 2.367062 
O 	 -4.549182 	 -7.094081 	 -6.405577 
O 	 -1.632167 	 5.951554 	 5.321700 
O 	 -3.621806 	 5.336895 	 3.341487 
O 	 0.730384 	 3.744966 	 -6.097020 
O 	 -1.644450 	 -0.883016 	 3.276624 
O 	 0.596704 	 5.040416 	 -1.368232 
O 	 -0.336977 	 -3.383558 	 4.279581 
O 	 -6.998060 	 -6.333225 	 -5.080809 
O 	 1.041993 	 -0.115603 	 3.972743 
O 	 6.626931 	 -2.903653 	 4.056241 
O 	 -3.556862 	 -0.466199 	 5.452417 
O 	 4.433512 	 -7.013002 	 -0.860551 
O 	 -3.630424 	 -6.884763 	 3.478212 
O 	 7.191959 	 4.999053 	 2.679659 
O 	 -1.108227 	 2.148154 	 -0.541275 
O 	 1.724766 	 1.324985 	 -3.308288 
O 	 4.987262 	 0.447172 	 -2.056572 
O 	 2.299837 	 -4.996128 	 -2.949187 
O 	 6.199435 	 -2.252682 	 -2.041813 
O 	 -3.317390 	 4.769284 	 -4.855523 
O 	 -0.962037 	 -5.971847 	 -6.512454 
O 	 6.131935 	 3.583254 	 6.965566 
O 	 5.157514 	 -6.372889 	 2.912836 
O 	 2.408681 	 -3.843545 	 2.278151 
O 	 5.040517 	 -4.710674 	 -3.678573 
O 	 -2.600154 	 -3.323976 	 0.014130 
O 	 -3.534332 	 1.825854 	 -2.177747 
O 	 -6.659754 	 7.349649 	 1.815666 
O 	 -3.200239 	 2.312954 	 4.541864 
O 	 -4.457458 	 6.588557 	 -2.336325 
O 	 -2.285139 	 -0.424008 	 0.533527 
O 	 -2.182922 	 3.919987 	 -7.420257 
O 	 -6.163138 	 4.504207 	 -5.283661 
O 	 -1.165227 	 3.258061 	 -3.662796 
O 	 5.353549 	 4.571999 	 -1.480077 
O 	 5.165389 	 1.557056 	 3.872708 
O 	 -5.750683 	 -1.136742 	 1.347844 
O 	 4.053838 	 -4.135180 	 0.040614 
O 	 -6.557146 	 1.071790 	 5.374541 
O 	 -0.315288 	 -2.551020 	 6.890432 
O 	 -4.096024 	 7.597845 	 0.527512 
O 	 4.730233 	 -0.659882 	 2.034003 
O 	 6.431728 	 6.009640 	 -4.006312 
O 	 -0.848048 	 -5.282388 	 0.895088 
O 	 0.167256 	 -2.541642 	 1.227769 
O 	 3.060080 	 2.601977 	 -4.986963 
O 	 -0.147826 	 -0.033373 	 -5.189661 
O 	 0.875752 	 6.434143 	 -6.735495 
O 	 6.865990 	 -3.203384 	 0.719249 
O 	 -5.844293 	 2.124642 	 -3.646591 
O 	 6.368315 	 -2.297805 	 -4.919408 
O 	 4.922144 	 3.872871 	 1.030981 
O 	 -6.124453 	 -5.311141 	 3.476083 
O 	 -2.003554 	 5.310240 	 -1.301264 
O 	 -7.599401 	 -5.421039 	 -2.171355 
O 	 7.137018 	 7.069202 	 -0.781620 
O 	 5.987005 	 1.229737 	 0.517487 
O 	 3.682415 	 -3.243826 	 6.499879 
O 	 6.229085 	 -0.882896 	 5.635792 
O 	 -4.573327 	 -4.983147 	 -1.287877 
O 	 2.561066 	 -2.611602 	 -1.529420 
O 	 0.990455 	 -6.424795 	 -0.889893 
O 	 3.353672 	 1.322213 	 6.972073 
O 	 3.504939 	 -6.309517 	 7.276888 
O 	 -1.872188 	 0.817539 	 7.047327 
O 	 -1.831404 	 -5.918976 	 -2.232971 
O 	 2.581249 	 4.837456 	 -3.137758 
O 	 1.617554 	 -4.858852 	 -5.554625 
O 	 -3.793238 	 -3.195833 	 2.397783 
O 	 0.423764 	 1.901366 	 1.966649 
O 	 7.010145 	 6.687396 	 4.915221 
O 	 0.653102 	 3.671853 	 5.676779 
O 	 1.153942 	 6.361208 	 4.767636 
O 	 7.263927 	 1.679568 	 -6.194479 
O 	 -6.564873 	 4.441417 	 -2.123162 
O 	 -2.913821 	 -3.041925 	 -6.721809 
O 	 4.157219 	 5.968233 	 6.431876 
O 	 2.787677 	 -0.998435 	 -3.769663 
O 	 -4.039819 	 1.990288 	 1.083958 
O 	 0.855522 	 0.231606 	 6.634651 
O 	 1.896940 	 -6.501775 	 3.018797 
O 	 -1.061955 	 3.411108 	 3.525495 
O 	 -4.841712 	 0.321148 	 -6.543574 
O 	 6.636526 	 -5.376626 	 5.121464 
O 	 -6.312935 	 -0.672139 	 -4.175312 
O 	 -4.765902 	 -4.347089 	 -4.174551 
O 	 -4.675837 	 -0.841847 	 -1.712413 
O 	 4.561095 	 4.855208 	 -5.892251 
O 	 -6.000367 	 -2.608261 	 -6.360217 
O 	 -5.748140 	 3.889275 	 4.759621 
O 	 1.304226 	 6.344275 	 1.065790 
O 	 -2.384609 	 -1.360871 	 -4.491158 
O 	 -5.174425 	 5.210690 	 7.042944 
O 	 6.133429 	 -5.016348 	 -6.636218 
O 	 -5.489709 	 -2.404594 	 5.024555 
O 	 5.482890 	 -0.318944 	 -6.704875 
O 	 2.042145 	 -0.671842 	 0.632512 
O 	 3.140866 	 -1.876261 	 4.079327 
O 	 2.473631 	 4.189375 	 2.566274 
O 	 1.258311 	 -5.400449 	 5.857803 
O 	 3.531669 	 3.490068 	 5.221754 
O 	 1.589476 	 -2.137395 	 -5.792788 
O 	 5.444844 	 2.477031 	 -3.730755 
O 	 -1.848022 	 -6.114036 	 5.415712 
O 	 -5.500301 	 -4.951907 	 6.341540 
O 	 -6.592006 	 1.336041 	 2.193745 
O 	 3.968009 	 7.399029 	 -3.873459 
O 	 2.770254 	 1.612902 	 -0.780240 
K 	 -2.415537 	 4.379359 	 1.032277 
