333
conformation = 71
H 	 -2.588800 	 6.645896 	 -4.543968 
H 	 -2.285005 	 -6.915467 	 -3.598779 
H 	 -6.074040 	 3.780451 	 1.237270 
H 	 -5.053196 	 3.076141 	 0.435678 
H 	 -0.961141 	 6.615678 	 2.963904 
H 	 -0.837512 	 -7.140608 	 1.868241 
H 	 -5.505508 	 -7.243068 	 -6.122366 
H 	 -4.019367 	 7.468937 	 -5.783950 
H 	 -1.747291 	 5.331764 	 6.201632 
H 	 -2.300958 	 5.694375 	 4.764558 
H 	 -4.275951 	 4.837686 	 3.918202 
H 	 -3.722620 	 6.215419 	 3.478458 
H 	 1.674242 	 3.157197 	 -5.718546 
H 	 0.718463 	 4.384986 	 -6.077418 
H 	 -2.047777 	 -0.616925 	 3.977177 
H 	 -0.590462 	 -0.813745 	 3.528239 
H 	 1.426124 	 4.703969 	 -1.938638 
H 	 1.194521 	 5.028345 	 -0.513946 
H 	 -0.766833 	 -2.628433 	 3.761541 
H 	 0.529256 	 -3.457071 	 3.666816 
H 	 -7.360602 	 7.307651 	 -4.808549 
H 	 7.319146 	 -6.318519 	 -5.664745 
H 	 1.950531 	 -0.825467 	 3.716258 
H 	 1.141726 	 0.395661 	 3.222687 
H 	 6.537566 	 -2.980184 	 3.083360 
H 	 6.404256 	 -2.325645 	 4.571080 
H 	 -3.825658 	 -1.199643 	 5.349502 
H 	 -2.933434 	 -0.153352 	 6.169075 
H 	 5.286555 	 -7.255963 	 -0.846938 
H 	 4.322250 	 -6.008440 	 -0.937161 
H 	 -4.435676 	 -6.530531 	 3.936678 
H 	 -2.884179 	 -6.631511 	 4.192770 
H 	 -7.009636 	 5.489305 	 2.415208 
H 	 6.534786 	 4.594374 	 2.341923 
H 	 -0.062622 	 2.448028 	 -0.157720 
H 	 -1.054733 	 1.177766 	 -0.312970 
H 	 2.404335 	 1.695035 	 -3.756161 
H 	 0.915145 	 1.125197 	 -3.508791 
H 	 4.571784 	 0.763043 	 -1.598271 
H 	 5.762032 	 1.003306 	 -2.594183 
H 	 1.951181 	 -5.235817 	 -3.618002 
H 	 1.835144 	 -4.598482 	 -2.148065 
H 	 6.006113 	 -1.432953 	 -1.768711 
H 	 5.561068 	 -2.901030 	 -2.208702 
H 	 -2.618656 	 3.915847 	 -4.188563 
H 	 -4.050491 	 4.661795 	 -4.687138 
H 	 -1.311123 	 -5.750910 	 -6.999667 
H 	 -1.449949 	 -6.543566 	 -5.661995 
H 	 5.714871 	 2.928826 	 6.237465 
H 	 5.947151 	 3.801510 	 -7.357602 
H 	 5.140668 	 7.545720 	 3.494028 
H 	 4.177944 	 -6.433501 	 2.902104 
H 	 3.265685 	 -4.171956 	 1.586408 
H 	 2.324759 	 -4.792714 	 2.668808 
H 	 5.712460 	 -5.426731 	 -3.140409 
H 	 4.266354 	 -5.078384 	 -3.059107 
H 	 -3.338386 	 -4.004472 	 -0.460373 
H 	 -2.905227 	 -3.593550 	 0.977928 
H 	 -2.661504 	 1.641126 	 -2.995959 
H 	 -3.156409 	 2.267626 	 -1.648795 
H 	 -6.448426 	 -6.872886 	 2.431865 
H 	 -5.480656 	 7.223427 	 1.424049 
H 	 -3.438120 	 1.326054 	 4.959251 
H 	 -3.793952 	 2.844793 	 4.789588 
H 	 -4.505566 	 6.406386 	 -1.346239 
H 	 -5.338229 	 5.605454 	 -2.283000 
H 	 -2.634102 	 -1.430974 	 0.073113 
H 	 -1.993527 	 -0.882499 	 1.315517 
H 	 -0.983505 	 3.677093 	 -7.021979 
H 	 -2.335829 	 4.346451 	 -6.712235 
H 	 -6.014832 	 3.590809 	 -4.702557 
H 	 -6.644936 	 4.962160 	 -4.747299 
H 	 -0.438658 	 3.065946 	 -2.891826 
H 	 -0.420349 	 3.039250 	 -4.421541 
H 	 4.740171 	 4.990464 	 -1.811305 
H 	 5.710454 	 3.814890 	 -2.274383 
H 	 5.711985 	 0.797486 	 4.327486 
H 	 4.931027 	 1.194633 	 3.046638 
H 	 -6.231382 	 -0.977829 	 2.026163 
H 	 -6.380369 	 -2.299307 	 1.313378 
H 	 3.985065 	 -3.879808 	 -0.489205 
H 	 5.241386 	 -3.934039 	 0.501793 
H 	 -6.221744 	 1.682217 	 5.244970 
H 	 -5.436524 	 0.337165 	 5.460801 
H 	 -0.352398 	 -3.421859 	 6.124431 
H 	 0.481768 	 -3.416432 	 -7.405237 
H 	 -3.514657 	 -7.121846 	 1.632903 
H 	 -3.640754 	 -6.423026 	 0.298194 
H 	 4.279226 	 -1.184651 	 2.730274 
H 	 3.797580 	 -0.792781 	 1.289877 
H 	 6.718285 	 5.274362 	 -3.350867 
H 	 5.840243 	 6.369074 	 -3.729290 
H 	 -1.207530 	 -5.094922 	 0.352644 
H 	 0.115979 	 -5.701636 	 0.854835 
H 	 0.906426 	 -3.348191 	 1.628811 
H 	 -0.421251 	 -2.837639 	 0.792123 
H 	 4.787080 	 2.345135 	 -4.329678 
H 	 3.254583 	 1.829937 	 -5.652958 
H 	 -0.805987 	 -0.086427 	 -4.684713 
H 	 0.003655 	 0.522412 	 -5.797930 
H 	 1.803117 	 6.863051 	 -6.684825 
H 	 0.297700 	 7.186407 	 -6.756057 
H 	 -7.154151 	 -4.010113 	 0.816367 
H 	 7.082062 	 -3.219910 	 -0.317799 
H 	 -6.046556 	 0.961485 	 -3.764637 
H 	 -4.966452 	 2.083415 	 -3.439029 
H 	 7.264579 	 -2.039101 	 -4.261703 
H 	 6.366195 	 -3.240252 	 -4.387649 
H 	 5.720560 	 2.801066 	 1.081639 
H 	 5.139581 	 3.949049 	 0.272259 
H 	 -5.711968 	 -4.649461 	 3.074013 
H 	 -6.490395 	 -5.477151 	 4.146084 
H 	 -2.581323 	 5.679066 	 -1.923666 
H 	 -1.115695 	 5.446749 	 -1.536129 
H 	 -7.549456 	 -6.374699 	 -1.562583 
H 	 -7.206705 	 -5.822721 	 -2.931313 
H 	 -7.251518 	 6.171947 	 -1.119470 
H 	 -7.267811 	 7.080151 	 0.111297 
H 	 6.159348 	 0.845714 	 -0.311469 
H 	 5.789282 	 0.510271 	 1.151734 
H 	 3.434529 	 -2.698698 	 7.351406 
H 	 3.228608 	 -3.940367 	 6.527030 
H 	 7.238641 	 -0.530978 	 5.611216 
H 	 6.033262 	 -1.082535 	 6.571149 
H 	 -4.534106 	 -4.809642 	 -2.024913 
H 	 -5.477485 	 -5.111637 	 -0.921834 
H 	 2.470807 	 -1.974436 	 -0.703781 
H 	 2.685693 	 -2.002337 	 -2.216441 
H 	 1.635619 	 -6.267595 	 -1.292258 
H 	 1.680921 	 7.373492 	 -0.278317 
H 	 2.620147 	 0.769091 	 7.040786 
H 	 4.113048 	 0.442854 	 -7.353998 
H 	 4.260654 	 -6.071308 	 -7.050612 
H 	 4.118136 	 7.542945 	 7.014631 
H 	 -0.997923 	 0.798766 	 6.774356 
H 	 -1.942565 	 1.923130 	 6.935543 
H 	 -2.085622 	 -5.605866 	 -1.413810 
H 	 -0.739408 	 -6.359349 	 -1.692135 
H 	 3.229359 	 3.962419 	 -3.773107 
H 	 3.102674 	 5.515265 	 -3.615635 
H 	 0.914778 	 -5.295900 	 -5.866219 
H 	 1.736839 	 -4.090150 	 -5.492013 
H 	 -4.350430 	 -2.534192 	 2.077554 
H 	 -3.267526 	 -3.101125 	 3.138550 
H 	 1.571887 	 2.225372 	 2.154214 
H 	 0.140355 	 2.173957 	 2.674472 
H 	 6.910813 	 5.947875 	 4.331909 
H 	 6.372340 	 6.290244 	 5.653312 
H 	 1.657737 	 3.482188 	 5.433030 
H 	 0.950038 	 3.563224 	 6.731940 
H 	 1.691632 	 6.470635 	 5.654002 
H 	 0.312901 	 6.159945 	 5.135612 
H 	 -6.507227 	 1.207341 	 -6.465103 
H 	 7.220873 	 2.115761 	 -7.030346 
H 	 -6.173716 	 3.527762 	 -2.455519 
H 	 -6.363305 	 4.181859 	 -1.034908 
H 	 -2.052671 	 -3.161508 	 -6.898713 
H 	 -3.254818 	 -3.928249 	 -6.135112 
H 	 4.359079 	 5.244478 	 7.174204 
H 	 3.856644 	 5.406354 	 5.661483 
H 	 2.574217 	 -0.234144 	 -3.514844 
H 	 4.031504 	 -0.843533 	 -3.550874 
H 	 -3.239900 	 0.843705 	 0.777918 
H 	 -4.611971 	 1.315963 	 1.313942 
H 	 0.996621 	 0.178307 	 5.591130 
H 	 0.894166 	 -0.955096 	 6.577206 
H 	 2.134124 	 -6.982151 	 2.178434 
H 	 1.464359 	 7.434204 	 3.414262 
H 	 -1.391955 	 2.804337 	 4.175012 
H 	 -0.281988 	 3.751048 	 4.178144 
H 	 -3.781247 	 0.463645 	 -6.952744 
H 	 -4.895613 	 -0.610982 	 -6.686900 
H 	 6.688054 	 -4.492244 	 4.877608 
H 	 6.379583 	 -6.050694 	 4.980344 
H 	 -5.577942 	 -1.065735 	 -3.067406 
H 	 -5.313060 	 -0.833050 	 -4.598226 
H 	 -5.081375 	 -3.368816 	 -4.596419 
H 	 -4.930501 	 -4.890235 	 -4.890907 
H 	 -4.382764 	 -0.121844 	 -1.662443 
H 	 -5.177069 	 -1.157456 	 -0.812769 
H 	 5.244453 	 4.846929 	 -5.166228 
H 	 4.202666 	 3.807564 	 -5.683501 
H 	 -6.921236 	 -2.387921 	 -5.972227 
H 	 -5.992924 	 -3.297280 	 -6.676253 
H 	 -6.280817 	 3.969420 	 4.391256 
H 	 -5.411706 	 4.480941 	 5.690025 
H 	 2.075350 	 5.373545 	 1.578634 
H 	 0.794487 	 6.178059 	 1.218139 
H 	 -2.543906 	 -2.117952 	 -3.600061 
H 	 -2.415120 	 -2.174183 	 -5.157602 
H 	 -5.492740 	 4.605803 	 -7.101865 
H 	 -4.824685 	 5.951676 	 -7.309726 
H 	 5.999166 	 -5.302354 	 7.146895 
H 	 6.116910 	 -4.177135 	 -6.642180 
H 	 -5.173603 	 -3.374575 	 5.556263 
H 	 -6.127017 	 -2.453805 	 4.696666 
H 	 6.342329 	 0.050256 	 -6.411769 
H 	 5.756479 	 -1.344097 	 -5.984733 
H 	 1.310820 	 -1.239224 	 1.137347 
H 	 1.807556 	 0.052805 	 0.343865 
H 	 3.140474 	 -2.872936 	 3.684431 
H 	 3.613380 	 -2.256887 	 5.096083 
H 	 2.547408 	 4.637493 	 3.571443 
H 	 3.486411 	 3.910039 	 2.394969 
H 	 2.169564 	 -5.999950 	 6.577473 
H 	 1.673280 	 -5.557499 	 5.235183 
H 	 3.535886 	 2.502483 	 6.103393 
H 	 4.099994 	 2.652613 	 4.723526 
H 	 1.072502 	 -1.817361 	 -5.644757 
H 	 2.521795 	 -2.079250 	 -5.137281 
H 	 6.228301 	 2.110871 	 -4.748373 
H 	 2.310447 	 1.497704 	 -1.456940 
H 	 -0.784742 	 -5.841447 	 5.405324 
H 	 -1.403994 	 -7.242087 	 5.534125 
H 	 -5.065335 	 -6.114960 	 6.889941 
H 	 -6.251756 	 -5.441734 	 6.286087 
H 	 -7.220734 	 1.416545 	 2.880809 
H 	 -7.064216 	 1.288223 	 1.414172 
H 	 4.218679 	 7.561016 	 -2.923711 
H 	 4.335963 	 -6.726985 	 -4.351476 
H 	 2.598010 	 2.506290 	 -0.348596 
O 	 -2.474012 	 -7.280687 	 -4.485044 
O 	 -5.470600 	 3.945818 	 0.502522 
O 	 -0.673672 	 6.820783 	 2.040070 
O 	 -4.604358 	 -7.301850 	 -6.580369 
O 	 -1.612693 	 5.928954 	 5.436380 
O 	 -3.512632 	 5.258367 	 3.372087 
O 	 0.722247 	 3.408794 	 -5.971380 
O 	 -1.508106 	 -1.134624 	 3.354298 
O 	 0.654819 	 4.877960 	 -1.330749 
O 	 -0.291261 	 -3.375240 	 4.191651 
O 	 -6.963302 	 -6.718748 	 -5.001796 
O 	 1.158635 	 -0.275946 	 3.921941 
O 	 6.902365 	 -3.006686 	 4.012935 
O 	 -3.399748 	 -0.332777 	 5.333879 
O 	 4.386123 	 -6.977078 	 -1.105639 
O 	 -3.588983 	 -6.868883 	 3.535181 
O 	 -7.554953 	 4.772032 	 2.801570 
O 	 -0.886123 	 2.112090 	 -0.595834 
O 	 1.829922 	 1.145065 	 -3.055992 
O 	 5.381829 	 0.318906 	 -1.915158 
O 	 2.247670 	 -5.269913 	 -2.694036 
O 	 6.314204 	 -2.386046 	 -1.733365 
O 	 -3.077368 	 4.650068 	 -4.745710 
O 	 -0.782391 	 -6.222990 	 -6.313427 
O 	 6.417306 	 3.401855 	 6.732835 
O 	 5.146326 	 -6.592686 	 2.929937 
O 	 2.571990 	 -3.932288 	 2.268449 
O 	 5.030215 	 -4.912884 	 -3.636556 
O 	 -2.567152 	 -3.643088 	 0.017402 
O 	 -3.456278 	 1.767062 	 -2.441223 
O 	 -6.358255 	 7.215890 	 1.816870 
O 	 -3.117092 	 2.202374 	 4.628729 
O 	 -4.635114 	 6.303908 	 -2.305448 
O 	 -2.280980 	 -0.599530 	 0.457515 
O 	 -1.827984 	 3.913704 	 -7.428801 
O 	 -6.016731 	 4.413482 	 -5.205563 
O 	 -1.029940 	 3.164445 	 -3.650759 
O 	 5.646720 	 4.610993 	 -1.686397 
O 	 5.167534 	 1.466713 	 3.956641 
O 	 -5.764471 	 -1.521133 	 1.364226 
O 	 4.450314 	 -4.410050 	 0.236676 
O 	 -6.326743 	 0.706519 	 5.441621 
O 	 -0.212548 	 -2.980577 	 6.950999 
O 	 -3.894015 	 -7.269372 	 0.721709 
O 	 4.580332 	 -0.691592 	 1.919514 
O 	 6.586089 	 5.856681 	 -4.121537 
O 	 -0.730763 	 -5.382308 	 1.132126 
O 	 0.379440 	 -2.600236 	 1.320851 
O 	 3.103495 	 2.474356 	 -4.920256 
O 	 0.060734 	 -0.146771 	 -5.074894 
O 	 0.927482 	 6.443058 	 -6.814056 
O 	 7.059988 	 -3.324687 	 0.673461 
O 	 -5.932420 	 1.910254 	 -3.643410 
O 	 6.614931 	 -2.427694 	 -4.859536 
O 	 5.166134 	 3.630350 	 1.215405 
O 	 -5.852275 	 -5.564960 	 3.443515 
O 	 -2.018450 	 5.369185 	 -1.167362 
O 	 7.247730 	 -5.555363 	 -2.112341 
O 	 7.227469 	 6.972043 	 -0.763702 
O 	 6.266983 	 1.174549 	 0.597834 
O 	 3.885016 	 -3.238639 	 6.691634 
O 	 6.322635 	 -0.937897 	 5.649919 
O 	 -4.545839 	 -5.234593 	 -1.117813 
O 	 2.682172 	 -2.575659 	 -1.422419 
O 	 1.161854 	 -6.720887 	 -0.557038 
O 	 3.567231 	 1.083704 	 7.068047 
O 	 3.642561 	 -6.539767 	 7.260359 
O 	 -1.829544 	 0.989806 	 7.229366 
O 	 -1.617029 	 -6.104055 	 -2.062878 
O 	 2.943244 	 4.679884 	 -3.170886 
O 	 1.841551 	 -5.057692 	 -5.573272 
O 	 -3.802039 	 -3.326197 	 2.399489 
O 	 0.771356 	 1.708941 	 2.085246 
O 	 6.940010 	 6.666524 	 4.984460 
O 	 0.763984 	 3.597061 	 5.778464 
O 	 1.265707 	 6.142568 	 4.825839 
O 	 -7.495037 	 1.442285 	 -6.334815 
O 	 -6.466070 	 4.404761 	 -2.044496 
O 	 -2.975375 	 -3.167589 	 -6.608067 
O 	 4.168397 	 5.910252 	 6.447496 
O 	 3.106650 	 -1.079738 	 -3.729029 
O 	 -3.841186 	 1.634325 	 0.818150 
O 	 0.799370 	 0.037250 	 6.539170 
O 	 2.050258 	 -6.746957 	 3.091509 
O 	 -0.834525 	 3.322043 	 3.539369 
O 	 -4.575376 	 0.277132 	 -6.420806 
O 	 6.886405 	 -5.319143 	 5.374725 
O 	 -6.009927 	 -0.793141 	 -3.924968 
O 	 -4.818705 	 -4.230842 	 -4.189462 
O 	 -4.686588 	 -1.045651 	 -1.680945 
O 	 4.733373 	 4.595855 	 -5.923115 
O 	 -5.987593 	 -2.414836 	 -6.228569 
O 	 -5.477810 	 3.783609 	 4.921592 
O 	 1.712770 	 6.058816 	 0.946149 
O 	 -2.252943 	 -1.538820 	 -4.349403 
O 	 -5.164631 	 5.183412 	 7.066149 
O 	 6.059121 	 -5.124702 	 -6.767704 
O 	 -5.284020 	 -2.471093 	 5.164299 
O 	 5.652993 	 -0.640364 	 -6.675205 
O 	 2.101516 	 -0.874798 	 0.652369 
O 	 3.446703 	 -2.036163 	 4.164262 
O 	 2.545718 	 4.087627 	 2.751993 
O 	 1.406089 	 -5.601998 	 6.191632 
O 	 3.595871 	 3.192220 	 5.368375 
O 	 1.884448 	 -2.401424 	 -5.868284 
O 	 5.696260 	 2.412645 	 -3.974440 
O 	 -1.638233 	 -6.283457 	 5.441218 
O 	 -5.351792 	 -5.239096 	 6.566886 
O 	 -6.499386 	 1.204731 	 2.224569 
O 	 4.201308 	 7.322073 	 -3.910991 
O 	 2.711058 	 1.551981 	 -0.534277 
K 	 -2.340523 	 4.189834 	 1.090707 
