333
conformation = 33
H 	 -2.652993 	 6.761103 	 -4.495191 
H 	 -2.764317 	 -6.624965 	 -3.755852 
H 	 -6.223363 	 3.786630 	 1.074733 
H 	 -5.095886 	 3.311638 	 0.255896 
H 	 -0.802280 	 6.804619 	 3.064599 
H 	 -1.195729 	 -7.084230 	 1.954134 
H 	 -5.338885 	 -6.949028 	 -5.874791 
H 	 -3.827164 	 -7.088403 	 -6.065141 
H 	 -1.726715 	 5.480252 	 6.070512 
H 	 -2.288451 	 5.551820 	 4.602350 
H 	 -4.459368 	 4.905654 	 3.647449 
H 	 -3.889285 	 6.323485 	 3.382217 
H 	 1.369288 	 3.166571 	 -5.615515 
H 	 0.876430 	 4.587340 	 -6.170104 
H 	 -2.257512 	 -0.923986 	 3.974078 
H 	 -0.834299 	 -0.513004 	 3.474972 
H 	 1.191884 	 5.215637 	 -2.169315 
H 	 0.725074 	 5.778597 	 -0.880254 
H 	 -0.753641 	 -2.608502 	 3.515752 
H 	 0.482478 	 -3.448097 	 3.820133 
H 	 -7.630206 	 -7.165487 	 -4.799180 
H 	 7.172998 	 -5.881402 	 -5.648758 
H 	 1.839640 	 -0.662507 	 3.851776 
H 	 1.014989 	 0.491415 	 3.114967 
H 	 6.346437 	 -2.733123 	 3.041787 
H 	 6.433854 	 -2.103137 	 4.530016 
H 	 -4.201764 	 -1.005515 	 5.686170 
H 	 -2.999066 	 -0.001387 	 5.996577 
H 	 5.242664 	 7.674612 	 -1.059515 
H 	 4.288001 	 -6.082194 	 -0.554030 
H 	 -4.480351 	 -6.251027 	 3.438725 
H 	 -2.991905 	 -6.383074 	 3.897535 
H 	 -7.469026 	 5.861715 	 2.338731 
H 	 6.399999 	 4.575401 	 2.174835 
H 	 -0.368154 	 2.358547 	 -0.058231 
H 	 -1.343447 	 1.248367 	 -0.602903 
H 	 2.178730 	 1.731231 	 -4.144219 
H 	 0.842318 	 0.950216 	 -3.567424 
H 	 4.165776 	 0.693732 	 -1.806959 
H 	 5.252528 	 1.089367 	 -2.877499 
H 	 1.859293 	 -5.064890 	 -3.853751 
H 	 2.167516 	 -4.140355 	 -2.561190 
H 	 5.511357 	 -1.472250 	 -2.118360 
H 	 5.612535 	 -3.035795 	 -2.245889 
H 	 -2.942341 	 4.204052 	 -4.233111 
H 	 -4.306960 	 4.726282 	 -4.911295 
H 	 -1.472177 	 -6.319596 	 -7.327597 
H 	 -1.468165 	 -6.399788 	 -5.793779 
H 	 5.754104 	 3.567276 	 5.886827 
H 	 5.489889 	 3.952989 	 -7.514073 
H 	 4.996179 	 7.587754 	 3.171419 
H 	 4.201346 	 -6.355762 	 2.384236 
H 	 3.012959 	 -3.762315 	 1.408492 
H 	 2.251011 	 -4.795026 	 2.339858 
H 	 5.371808 	 -5.110173 	 -2.918199 
H 	 4.027721 	 -4.658656 	 -3.501681 
H 	 -3.385993 	 -3.529809 	 -0.710833 
H 	 -3.178598 	 -3.422226 	 0.800393 
H 	 -2.858917 	 1.830565 	 -2.980132 
H 	 -3.444177 	 2.552764 	 -1.747846 
H 	 -6.645905 	 -6.769006 	 2.360923 
H 	 -5.765613 	 7.367000 	 1.264110 
H 	 -3.464642 	 1.357911 	 4.532398 
H 	 -4.067818 	 2.844956 	 4.678090 
H 	 -4.710833 	 6.573812 	 -1.466887 
H 	 -5.206460 	 5.714634 	 -2.589935 
H 	 -2.808490 	 -1.236046 	 0.006396 
H 	 -2.158043 	 -0.786313 	 1.286341 
H 	 -1.313736 	 3.723412 	 -7.149342 
H 	 -2.764193 	 4.131958 	 -6.746644 
H 	 -6.357092 	 3.674961 	 -5.029886 
H 	 -7.033242 	 4.991244 	 -5.204651 
H 	 -0.643424 	 3.026416 	 -2.972480 
H 	 -0.506799 	 3.658846 	 -4.385457 
H 	 4.543004 	 4.827115 	 -2.069224 
H 	 5.764380 	 3.851448 	 -2.100885 
H 	 4.949488 	 1.052533 	 4.597462 
H 	 4.783521 	 0.992203 	 3.041218 
H 	 -5.945444 	 -0.281533 	 1.523972 
H 	 -6.813654 	 -1.517066 	 1.154264 
H 	 3.842009 	 -3.412120 	 -0.508188 
H 	 5.056030 	 -4.119607 	 0.254692 
H 	 -6.371222 	 1.909461 	 5.373684 
H 	 -5.786240 	 0.512029 	 5.608336 
H 	 -0.279429 	 -2.698135 	 5.854321 
H 	 -0.008546 	 -3.489981 	 7.156467 
H 	 -3.637458 	 -6.823668 	 1.257700 
H 	 -4.215401 	 -6.466000 	 -0.109862 
H 	 4.458232 	 -0.966655 	 2.814341 
H 	 3.692800 	 -0.617511 	 1.503084 
H 	 6.554796 	 5.822043 	 -3.230711 
H 	 5.577629 	 6.488812 	 -4.046487 
H 	 -1.639081 	 -4.681757 	 0.562726 
H 	 -0.333328 	 -5.508721 	 0.099577 
H 	 0.958837 	 -3.155932 	 1.231302 
H 	 -0.613471 	 -2.972807 	 0.854799 
H 	 4.620027 	 2.470821 	 -4.491693 
H 	 3.057093 	 2.201815 	 -5.949802 
H 	 -0.921299 	 -0.710396 	 -5.176650 
H 	 -0.469287 	 0.563696 	 -5.927170 
H 	 1.531914 	 7.120693 	 -6.966092 
H 	 -0.000865 	 7.076297 	 -6.901734 
H 	 -7.665911 	 -4.095007 	 0.326627 
H 	 6.640795 	 -2.876649 	 -0.310722 
H 	 -6.444028 	 1.316328 	 -3.962686 
H 	 -5.208317 	 1.803488 	 -3.057351 
H 	 7.062359 	 -1.849872 	 -4.417082 
H 	 5.913470 	 -2.870900 	 -4.350680 
H 	 5.208109 	 2.888736 	 0.700299 
H 	 5.201450 	 4.368471 	 0.142225 
H 	 -5.678392 	 -4.543372 	 3.385632 
H 	 -6.918524 	 -5.304360 	 3.949661 
H 	 -2.479650 	 5.962237 	 -1.935387 
H 	 -1.212340 	 5.185150 	 -1.728360 
H 	 7.154144 	 -6.414849 	 -2.105581 
H 	 -7.230923 	 -5.273718 	 -3.083600 
H 	 6.659068 	 6.260662 	 -1.026410 
H 	 -7.522536 	 7.126898 	 0.054717 
H 	 5.840327 	 1.036992 	 -0.485274 
H 	 5.523675 	 0.567233 	 0.983903 
H 	 3.374492 	 -2.798686 	 7.288058 
H 	 3.340217 	 -4.094580 	 6.515158 
H 	 6.877084 	 -0.209753 	 5.464024 
H 	 5.797073 	 -0.905256 	 6.457564 
H 	 -4.567045 	 -5.219375 	 -2.253181 
H 	 -5.592969 	 -5.166274 	 -1.241782 
H 	 2.047592 	 -1.972848 	 -0.962917 
H 	 2.575002 	 -2.004547 	 -2.395545 
H 	 1.514951 	 -6.416916 	 -1.653710 
H 	 1.526257 	 -6.980936 	 -0.167452 
H 	 2.455637 	 0.812489 	 6.837646 
H 	 4.066362 	 0.591672 	 6.936469 
H 	 4.251213 	 -6.004919 	 -7.299630 
H 	 3.782603 	 -7.161695 	 6.800774 
H 	 -0.993496 	 0.874206 	 6.911540 
H 	 -2.051927 	 1.904773 	 6.815680 
H 	 -2.160488 	 -5.390797 	 -1.516748 
H 	 -1.173793 	 -6.544128 	 -1.883310 
H 	 2.472259 	 4.056229 	 -3.884000 
H 	 2.815892 	 5.623479 	 -3.777971 
H 	 0.787234 	 -5.309572 	 -5.980466 
H 	 1.468478 	 -3.956136 	 -5.970665 
H 	 -4.579671 	 -2.477578 	 2.207978 
H 	 -3.064704 	 -2.868549 	 2.757521 
H 	 1.245915 	 2.443313 	 1.944793 
H 	 -0.221160 	 2.409063 	 2.399297 
H 	 6.925841 	 5.848197 	 4.362095 
H 	 6.568747 	 6.461115 	 5.712538 
H 	 1.582613 	 3.633590 	 5.600642 
H 	 0.364742 	 3.836384 	 6.540972 
H 	 1.632873 	 6.052993 	 5.450567 
H 	 0.239883 	 5.839602 	 4.833310 
H 	 -6.752158 	 1.378025 	 -6.499608 
H 	 6.990180 	 2.189778 	 -7.136442 
H 	 -6.906392 	 3.681590 	 -2.625267 
H 	 -6.228316 	 4.130485 	 -1.264086 
H 	 -2.363464 	 -3.060557 	 -7.466103 
H 	 -2.912865 	 -3.764401 	 -6.074187 
H 	 3.988533 	 5.716199 	 7.288277 
H 	 4.045375 	 5.166663 	 5.771569 
H 	 2.307948 	 -0.071322 	 -3.699773 
H 	 3.716113 	 -0.746182 	 -3.682945 
H 	 -3.562673 	 1.085356 	 0.623419 
H 	 -4.540063 	 1.676300 	 1.674797 
H 	 0.775557 	 0.115618 	 5.483697 
H 	 0.426632 	 -0.669514 	 6.777246 
H 	 1.831091 	 7.561293 	 2.335149 
H 	 1.708937 	 -7.040002 	 3.793779 
H 	 -1.936322 	 3.099013 	 3.771175 
H 	 -0.580316 	 3.474032 	 4.259845 
H 	 -3.854922 	 0.677890 	 -6.622473 
H 	 -4.849049 	 -0.600897 	 -6.789796 
H 	 6.404149 	 -4.456990 	 4.712399 
H 	 6.136580 	 -5.990500 	 4.654483 
H 	 -5.844532 	 -0.862999 	 -3.339050 
H 	 -5.548667 	 -0.452075 	 -4.854261 
H 	 -5.415813 	 -3.718526 	 -4.961677 
H 	 -5.123693 	 -5.169343 	 -4.472892 
H 	 -4.305983 	 -0.014801 	 -1.893450 
H 	 -5.324826 	 -0.796017 	 -1.049872 
H 	 5.354342 	 5.110260 	 -5.561225 
H 	 4.117416 	 4.136690 	 -5.386926 
H 	 -7.070981 	 -2.687878 	 -6.286920 
H 	 -5.888118 	 -2.909392 	 -7.213159 
H 	 -6.413628 	 4.257149 	 4.118828 
H 	 -5.670498 	 4.518832 	 5.575646 
H 	 1.734079 	 5.523840 	 1.437191 
H 	 0.553578 	 6.549934 	 1.339078 
H 	 -2.584095 	 -2.164603 	 -3.972659 
H 	 -2.798613 	 -1.696262 	 -5.413915 
H 	 -5.678439 	 4.924517 	 -7.101992 
H 	 -5.226688 	 6.212958 	 7.090354 
H 	 6.483064 	 -4.846102 	 7.239851 
H 	 5.689379 	 -4.151661 	 -6.354141 
H 	 -5.397046 	 -3.144924 	 5.504353 
H 	 -6.411378 	 -2.393499 	 4.598699 
H 	 6.129587 	 0.340098 	 -6.594142 
H 	 5.710373 	 -1.030149 	 -6.088680 
H 	 1.024896 	 -1.105343 	 0.612205 
H 	 1.837979 	 0.184163 	 0.197122 
H 	 2.919388 	 -2.605321 	 3.374000 
H 	 3.386818 	 -2.354535 	 4.855720 
H 	 2.433868 	 4.330105 	 3.534056 
H 	 3.326755 	 4.159471 	 2.155745 
H 	 1.964143 	 -5.750502 	 6.432850 
H 	 1.615532 	 -5.520545 	 5.023528 
H 	 3.546601 	 2.690205 	 5.862818 
H 	 3.738041 	 2.913861 	 4.376350 
H 	 0.853051 	 -1.580418 	 -6.082023 
H 	 2.077584 	 -1.694343 	 -5.144438 
H 	 6.123380 	 2.757202 	 -4.608323 
H 	 2.086996 	 1.863727 	 -1.574293 
H 	 -1.042380 	 -5.646414 	 5.172357 
H 	 -1.577091 	 -7.075894 	 5.352467 
H 	 -5.157958 	 -5.693791 	 6.912420 
H 	 -6.281904 	 -5.502300 	 5.973986 
H 	 -7.027073 	 1.282179 	 2.998398 
H 	 -7.445855 	 1.296170 	 1.536477 
H 	 3.920922 	 -6.946508 	 -3.158152 
H 	 3.816819 	 -6.781894 	 -4.706246 
H 	 2.901680 	 2.471393 	 -0.416067 
O 	 -2.643315 	 -7.160741 	 -4.579675 
O 	 -5.722409 	 4.041664 	 0.236619 
O 	 -0.891532 	 6.900306 	 2.130363 
O 	 -4.650059 	 -7.143809 	 -6.566030 
O 	 -1.740225 	 6.020895 	 5.262559 
O 	 -3.670766 	 5.362697 	 3.246966 
O 	 0.651930 	 3.640241 	 -6.164775 
O 	 -1.658732 	 -0.919626 	 3.203098 
O 	 0.530367 	 5.036532 	 -1.433630 
O 	 -0.429892 	 -3.314155 	 4.138065 
O 	 -7.096406 	 -6.452574 	 -5.170733 
O 	 0.994780 	 -0.137251 	 3.856982 
O 	 6.637228 	 -2.911528 	 3.930886 
O 	 -3.599685 	 -0.352809 	 5.302251 
O 	 4.329762 	 -6.940347 	 -1.050291 
O 	 -3.721929 	 -6.834643 	 3.426802 
O 	 7.143062 	 4.976022 	 2.612952 
O 	 -1.126342 	 2.200193 	 -0.666871 
O 	 1.700515 	 1.293836 	 -3.300361 
O 	 5.069753 	 0.452838 	 -2.091925 
O 	 2.161507 	 -5.061031 	 -2.921180 
O 	 6.151861 	 -2.246241 	 -2.035499 
O 	 -3.315546 	 4.757273 	 -4.892313 
O 	 -0.977397 	 -6.005786 	 -6.530335 
O 	 6.143810 	 3.572860 	 6.765133 
O 	 5.058721 	 -6.397143 	 2.825379 
O 	 2.367037 	 -3.800414 	 2.170840 
O 	 4.952044 	 -4.819148 	 -3.770080 
O 	 -2.660581 	 -3.424503 	 -0.080453 
O 	 -3.634922 	 1.863463 	 -2.411867 
O 	 -6.613424 	 7.373830 	 1.749874 
O 	 -3.223637 	 2.309494 	 4.472430 
O 	 -4.641123 	 6.514713 	 -2.435470 
O 	 -2.358985 	 -0.472389 	 0.398526 
O 	 -2.145296 	 3.983058 	 -7.551002 
O 	 -6.200668 	 4.528530 	 -5.346968 
O 	 -1.210288 	 3.295815 	 -3.774763 
O 	 5.414760 	 4.636116 	 -1.666697 
O 	 5.074845 	 1.595956 	 3.798501 
O 	 -5.859791 	 -1.252194 	 1.258290 
O 	 4.115946 	 -4.196548 	 -0.002618 
O 	 -6.556205 	 0.963654 	 5.306785 
O 	 -0.352590 	 -2.674674 	 6.814085 
O 	 -4.104750 	 7.666832 	 0.497368 
O 	 4.603942 	 -0.624285 	 1.865266 
O 	 6.416358 	 5.962165 	 -4.154900 
O 	 -0.901644 	 -5.239833 	 0.877731 
O 	 0.184750 	 -2.529215 	 1.164896 
O 	 2.980434 	 2.594605 	 -5.062690 
O 	 -0.169113 	 -0.025683 	 -5.236958 
O 	 0.791988 	 6.489607 	 -6.863339 
O 	 6.866840 	 -3.175869 	 0.608706 
O 	 -5.913258 	 2.045808 	 -3.740017 
O 	 6.393776 	 -2.288484 	 -5.016377 
O 	 4.930727 	 3.813513 	 0.993759 
O 	 -6.096044 	 -5.391506 	 3.369540 
O 	 -2.089624 	 5.384278 	 -1.320229 
O 	 7.148502 	 -5.438573 	 -2.264475 
O 	 7.107900 	 7.104644 	 -0.900311 
O 	 6.019372 	 1.269020 	 0.436482 
O 	 3.670225 	 -3.183365 	 6.443051 
O 	 6.181534 	 -0.879848 	 5.547987 
O 	 -4.615820 	 -5.017221 	 -1.302303 
O 	 2.515523 	 -2.539012 	 -1.579386 
O 	 0.980249 	 -6.486243 	 -0.856881 
O 	 3.358333 	 1.276265 	 6.899316 
O 	 3.443701 	 -6.329250 	 7.145950 
O 	 -1.967070 	 0.921410 	 6.983821 
O 	 -1.842718 	 -5.948847 	 -2.285774 
O 	 2.618305 	 4.813163 	 -3.244792 
O 	 1.621763 	 -4.861031 	 -5.671896 
O 	 -3.887165 	 -3.190750 	 2.280655 
O 	 0.443590 	 1.870906 	 1.923674 
O 	 6.900884 	 6.732866 	 4.826355 
O 	 0.610274 	 3.704456 	 5.583844 
O 	 1.095801 	 6.323408 	 4.688050 
O 	 -7.670254 	 1.614138 	 -6.346295 
O 	 -6.583055 	 4.495792 	 -2.155555 
O 	 -3.029537 	 -3.045323 	 -6.775532 
O 	 4.074578 	 6.010241 	 6.316555 
O 	 2.779866 	 -0.958698 	 -3.895346 
O 	 -4.073232 	 1.910367 	 0.872242 
O 	 0.762005 	 0.206646 	 6.461369 
O 	 1.837436 	 -6.552854 	 2.940460 
O 	 -1.044915 	 3.411837 	 3.434609 
O 	 -4.831541 	 0.360976 	 -6.592411 
O 	 6.647102 	 -5.315556 	 5.102256 
O 	 -6.252824 	 -0.659116 	 -4.206804 
O 	 -4.876472 	 -4.225917 	 -4.275283 
O 	 -4.767230 	 -0.873510 	 -1.811769 
O 	 4.527533 	 4.801656 	 -5.976839 
O 	 -6.128163 	 -2.446665 	 -6.370924 
O 	 -5.722713 	 3.919051 	 4.726493 
O 	 1.372499 	 6.268412 	 0.857930 
O 	 -2.384203 	 -1.370797 	 -4.528683 
O 	 -5.252271 	 5.258455 	 6.937337 
O 	 6.010943 	 -4.998011 	 -6.790192 
O 	 -5.499985 	 -2.362287 	 4.954946 
O 	 5.466768 	 -0.399831 	 -6.791700 
O 	 1.954518 	 -0.700060 	 0.542435 
O 	 3.170412 	 -1.896115 	 4.031340 
O 	 2.404123 	 4.204242 	 2.575716 
O 	 1.247774 	 -5.458799 	 5.895114 
O 	 3.457601 	 3.436737 	 5.158487 
O 	 1.603432 	 -2.185531 	 -5.900283 
O 	 5.456826 	 2.497099 	 -3.957591 
O 	 -1.870552 	 -6.148488 	 5.304273 
O 	 -5.521466 	 -5.024914 	 6.305980 
O 	 -6.658716 	 1.333237 	 2.077585 
O 	 3.986411 	 7.475334 	 -3.993065 
O 	 2.643242 	 1.627047 	 -0.780450 
K 	 -2.480361 	 4.349163 	 0.930635 
