333
conformation = 81
H 	 -2.620897 	 6.539209 	 -4.428669 
H 	 -2.267256 	 -7.110797 	 -3.634296 
H 	 -6.185879 	 3.872185 	 1.278899 
H 	 -5.177478 	 2.967280 	 0.397231 
H 	 -1.120000 	 6.621436 	 2.805976 
H 	 -0.997563 	 -7.188022 	 1.755840 
H 	 -5.651362 	 7.497842 	 -6.302900 
H 	 -4.183353 	 -7.383851 	 -5.872761 
H 	 -1.817537 	 5.153554 	 6.107313 
H 	 -2.445696 	 5.680740 	 4.784419 
H 	 -4.268750 	 4.774422 	 3.901531 
H 	 -3.872346 	 6.152657 	 3.410067 
H 	 1.537460 	 3.078784 	 -5.768924 
H 	 0.640293 	 4.290940 	 -6.045726 
H 	 -2.233198 	 -0.674895 	 3.842567 
H 	 -0.705446 	 -0.835472 	 3.336620 
H 	 1.236599 	 4.561275 	 -2.103065 
H 	 1.060771 	 4.892758 	 -0.573741 
H 	 -1.046140 	 -2.795380 	 3.816839 
H 	 0.360095 	 -3.500315 	 3.499639 
H 	 -7.408187 	 7.169672 	 -4.838535 
H 	 7.163853 	 -6.517447 	 -5.661666 
H 	 1.818877 	 -0.984859 	 3.756527 
H 	 1.002490 	 0.322209 	 3.067712 
H 	 6.412759 	 -3.065780 	 3.087258 
H 	 6.368736 	 -2.397333 	 4.499525 
H 	 -3.877159 	 -1.293063 	 5.095088 
H 	 -3.077369 	 -0.274270 	 6.172631 
H 	 5.109561 	 -7.311986 	 -0.842398 
H 	 4.243211 	 -6.098852 	 -0.957871 
H 	 -4.527457 	 -6.582264 	 3.749956 
H 	 -3.020418 	 -6.767370 	 4.208109 
H 	 -7.167286 	 5.437063 	 2.367597 
H 	 6.480511 	 4.495416 	 2.186717 
H 	 -0.120753 	 2.324917 	 -0.261008 
H 	 -1.160284 	 1.176908 	 -0.240138 
H 	 2.258503 	 1.561640 	 -3.811952 
H 	 0.888700 	 0.965751 	 -3.515121 
H 	 4.501807 	 0.647967 	 -1.626745 
H 	 5.662747 	 0.886986 	 -2.583039 
H 	 1.813503 	 -5.323037 	 -3.679147 
H 	 1.747621 	 -4.560240 	 -2.279628 
H 	 5.960416 	 -1.539840 	 -1.680137 
H 	 5.502505 	 -2.880298 	 -2.239035 
H 	 -2.707494 	 3.996696 	 -4.230449 
H 	 -4.126346 	 4.559616 	 -4.691603 
H 	 -1.334873 	 -5.757453 	 -6.993109 
H 	 -1.554485 	 -6.691513 	 -5.723951 
H 	 5.573087 	 2.833144 	 6.337810 
H 	 5.963165 	 3.686480 	 -7.466392 
H 	 5.201889 	 7.454284 	 3.503336 
H 	 4.078495 	 -6.531926 	 3.033389 
H 	 3.095168 	 -4.405113 	 1.507404 
H 	 2.254823 	 -4.922218 	 2.650399 
H 	 5.636014 	 -5.521863 	 -3.259527 
H 	 4.135873 	 -5.085932 	 -3.075022 
H 	 -3.435862 	 -4.230893 	 -0.447703 
H 	 -2.947406 	 -3.686384 	 0.877796 
H 	 -2.786521 	 1.642469 	 -3.130016 
H 	 -3.200355 	 2.107734 	 -1.706209 
H 	 -6.429653 	 -7.020568 	 2.289309 
H 	 -5.506965 	 7.218317 	 1.339941 
H 	 -3.589045 	 1.276935 	 4.843427 
H 	 -4.012315 	 2.790337 	 4.664511 
H 	 -4.618999 	 6.494493 	 -1.423685 
H 	 -5.439587 	 5.493766 	 -2.300692 
H 	 -2.649951 	 -1.524898 	 -0.029267 
H 	 -2.028985 	 -0.857747 	 1.317437 
H 	 -1.060514 	 3.653547 	 -7.004135 
H 	 -2.431318 	 4.210112 	 -6.692645 
H 	 -6.255936 	 3.421292 	 -4.850594 
H 	 -6.678441 	 4.903175 	 -4.741150 
H 	 -0.582837 	 3.195897 	 -2.853547 
H 	 -0.469181 	 2.854530 	 -4.432430 
H 	 4.678662 	 4.925274 	 -1.973128 
H 	 5.524268 	 3.806609 	 -2.395649 
H 	 5.581374 	 0.592512 	 4.258667 
H 	 4.753587 	 1.009667 	 3.022407 
H 	 -6.353355 	 -1.038285 	 1.929387 
H 	 -6.491511 	 -2.414881 	 1.214044 
H 	 3.858981 	 -4.032083 	 -0.422442 
H 	 5.214587 	 -3.969120 	 0.364257 
H 	 -6.308028 	 1.524406 	 5.198128 
H 	 -5.500642 	 0.271805 	 5.303174 
H 	 -0.378579 	 -3.540828 	 6.007675 
H 	 0.487431 	 -3.453304 	 7.309362 
H 	 -3.652217 	 -7.223991 	 1.639787 
H 	 -3.711961 	 -6.542255 	 0.222460 
H 	 4.141707 	 -1.263524 	 2.665838 
H 	 3.643748 	 -0.851869 	 1.301464 
H 	 6.640621 	 5.209278 	 -3.418668 
H 	 5.748846 	 6.402886 	 -3.920291 
H 	 -1.337632 	 -5.173875 	 0.360121 
H 	 0.104708 	 -5.809767 	 0.774321 
H 	 0.767314 	 -3.493365 	 1.537203 
H 	 -0.462455 	 -3.004741 	 0.732910 
H 	 4.655272 	 2.313039 	 -4.379805 
H 	 3.204095 	 1.632915 	 -5.534646 
H 	 -0.923158 	 -0.202186 	 -4.665146 
H 	 -0.055183 	 0.362162 	 -5.878580 
H 	 1.722466 	 6.691081 	 -6.631374 
H 	 0.240451 	 7.158844 	 -6.652078 
H 	 -7.311966 	 -4.225638 	 0.816781 
H 	 6.796915 	 -3.286418 	 -0.353383 
H 	 -6.124741 	 0.853617 	 -3.809857 
H 	 -5.088018 	 1.979429 	 -3.689042 
H 	 7.139900 	 -2.071867 	 -4.191114 
H 	 6.253819 	 -3.415026 	 -4.474064 
H 	 5.525401 	 2.650398 	 1.119807 
H 	 4.983307 	 3.837433 	 0.215511 
H 	 -5.694257 	 -4.789853 	 3.063642 
H 	 -6.571536 	 -5.456582 	 4.180737 
H 	 -2.709620 	 5.470696 	 -1.965088 
H 	 -1.227263 	 5.485773 	 -1.519573 
H 	 7.110743 	 -6.481235 	 -1.596864 
H 	 -7.280974 	 -6.009329 	 -2.959015 
H 	 -7.202275 	 6.290840 	 -1.297808 
H 	 -7.316461 	 7.016988 	 0.116029 
H 	 6.149992 	 0.822261 	 -0.381006 
H 	 5.679408 	 0.332719 	 1.009052 
H 	 3.373049 	 -2.665438 	 7.296567 
H 	 3.192171 	 -4.038961 	 6.450372 
H 	 7.132076 	 -0.687861 	 5.651117 
H 	 5.946367 	 -1.078930 	 6.547285 
H 	 -4.586585 	 -4.962950 	 -2.071375 
H 	 -5.627343 	 -5.316484 	 -0.915164 
H 	 2.505776 	 -1.951662 	 -0.728155 
H 	 2.754376 	 -2.087194 	 -2.245579 
H 	 1.526158 	 -6.304315 	 -1.235594 
H 	 1.592585 	 7.212162 	 -0.579695 
H 	 2.579731 	 0.537928 	 6.986252 
H 	 4.020665 	 0.391166 	 -7.271195 
H 	 4.089955 	 -6.133028 	 -7.039320 
H 	 4.039068 	 7.460162 	 6.907506 
H 	 -1.097523 	 0.635316 	 6.751772 
H 	 -2.149085 	 1.882994 	 6.921833 
H 	 -2.255560 	 -5.738479 	 -1.427857 
H 	 -0.827620 	 -6.387476 	 -1.638582 
H 	 3.107417 	 3.864753 	 -3.875184 
H 	 3.055758 	 5.492095 	 -3.633757 
H 	 0.864292 	 -5.493314 	 -5.888209 
H 	 1.754259 	 -4.191435 	 -5.554294 
H 	 -4.382972 	 -2.592880 	 2.125475 
H 	 -3.547095 	 -3.136527 	 3.231515 
H 	 1.474570 	 2.262916 	 2.126107 
H 	 0.040380 	 2.145959 	 2.588909 
H 	 6.861194 	 5.933697 	 4.173427 
H 	 6.170457 	 6.142342 	 5.565178 
H 	 1.540076 	 3.377471 	 5.285929 
H 	 0.948090 	 3.403446 	 6.718739 
H 	 1.503923 	 6.573707 	 5.539544 
H 	 0.246155 	 5.925057 	 5.075774 
H 	 -6.674254 	 1.101115 	 -6.466869 
H 	 7.196113 	 2.082988 	 -7.091663 
H 	 -6.170886 	 3.466936 	 -2.414619 
H 	 -6.456247 	 4.239113 	 -1.156502 
H 	 -2.136436 	 -3.331365 	 -6.920807 
H 	 -3.431736 	 -4.110433 	 -6.259608 
H 	 4.288135 	 5.128193 	 7.078171 
H 	 3.729862 	 5.242700 	 5.669774 
H 	 2.572521 	 -0.335856 	 -3.591489 
H 	 3.996334 	 -0.897056 	 -3.623489 
H 	 -3.306740 	 0.720223 	 0.615781 
H 	 -4.695542 	 1.189514 	 1.209541 
H 	 0.844957 	 0.060193 	 5.511036 
H 	 0.756408 	 -1.033448 	 6.545059 
H 	 1.969711 	 -7.030634 	 2.044931 
H 	 1.493628 	 7.269505 	 3.397910 
H 	 -1.429829 	 2.604172 	 4.031322 
H 	 -0.444212 	 3.748956 	 4.208823 
H 	 -3.809808 	 0.325366 	 -7.016540 
H 	 -5.027309 	 -0.638804 	 -6.815946 
H 	 6.656888 	 -4.552956 	 4.829697 
H 	 6.437142 	 -6.176090 	 4.967152 
H 	 -5.502912 	 -1.039939 	 -3.134939 
H 	 -5.412774 	 -1.121021 	 -4.602266 
H 	 -5.204945 	 -3.373669 	 -4.539846 
H 	 -5.110252 	 -4.901115 	 -4.996944 
H 	 -4.498586 	 -0.209551 	 -1.673548 
H 	 -5.113059 	 -1.231849 	 -0.810674 
H 	 5.142239 	 4.658882 	 -5.165363 
H 	 3.967347 	 3.783855 	 -5.801826 
H 	 -6.981197 	 -2.394090 	 -5.913826 
H 	 -6.018224 	 -3.329011 	 -6.786357 
H 	 -6.405022 	 3.815855 	 4.424589 
H 	 -5.539477 	 4.314223 	 5.636702 
H 	 2.138818 	 5.239671 	 1.426272 
H 	 0.654853 	 5.960267 	 1.202405 
H 	 -2.638048 	 -2.084031 	 -3.548437 
H 	 -2.535833 	 -2.296135 	 -5.076185 
H 	 -5.613561 	 4.579975 	 -7.082669 
H 	 -4.867013 	 5.846471 	 -7.387430 
H 	 5.929397 	 -5.382570 	 7.078512 
H 	 6.008476 	 -4.224522 	 -6.801782 
H 	 -5.211451 	 -3.458539 	 5.463288 
H 	 -6.198826 	 -2.582634 	 4.649736 
H 	 6.265307 	 -0.086664 	 -6.518935 
H 	 5.529876 	 -1.440047 	 -6.041440 
H 	 1.298417 	 -1.448367 	 1.101899 
H 	 1.768371 	 -0.068705 	 0.408918 
H 	 3.132323 	 -2.966542 	 3.710897 
H 	 3.662216 	 -2.301412 	 5.030058 
H 	 2.489170 	 4.564829 	 3.483702 
H 	 3.412216 	 3.899983 	 2.533234 
H 	 2.145420 	 -6.119428 	 6.614325 
H 	 1.531122 	 -5.733001 	 5.242204 
H 	 3.500692 	 2.471379 	 6.140079 
H 	 4.067449 	 2.572260 	 4.708791 
H 	 1.086739 	 -1.910418 	 -5.721847 
H 	 2.514057 	 -2.107423 	 -5.361177 
H 	 6.162320 	 1.802420 	 -4.680232 
H 	 2.162671 	 1.297871 	 -1.435151 
H 	 -0.802893 	 -6.005968 	 5.329101 
H 	 -1.615883 	 -7.310963 	 5.658535 
H 	 -4.992598 	 -6.143414 	 6.854554 
H 	 -6.394199 	 -5.517858 	 6.371372 
H 	 -7.214013 	 1.436958 	 2.880668 
H 	 -7.127766 	 1.125404 	 1.372924 
H 	 4.162706 	 7.462241 	 -3.027714 
H 	 4.352536 	 -6.776965 	 -4.246870 
H 	 2.414939 	 2.407069 	 -0.396650 
O 	 -2.573799 	 -7.375348 	 -4.556912 
O 	 -5.544126 	 3.856122 	 0.498436 
O 	 -0.760604 	 6.739359 	 1.932405 
O 	 -4.743733 	 7.495414 	 -6.649783 
O 	 -1.707388 	 5.842242 	 5.394827 
O 	 -3.609056 	 5.183328 	 3.332727 
O 	 0.603601 	 3.309671 	 -6.006567 
O 	 -1.602031 	 -1.232421 	 3.310384 
O 	 0.574290 	 4.761027 	 -1.386014 
O 	 -0.380850 	 -3.466007 	 4.132878 
O 	 -7.057528 	 -6.835491 	 -5.046192 
O 	 1.066801 	 -0.360711 	 3.843066 
O 	 6.832522 	 -3.074983 	 3.945702 
O 	 -3.481089 	 -0.395270 	 5.266597 
O 	 4.260736 	 -7.050277 	 -1.218039 
O 	 -3.673412 	 -6.936337 	 3.490050 
O 	 -7.621923 	 4.661896 	 2.775199 
O 	 -0.956728 	 2.030403 	 -0.662304 
O 	 1.723787 	 1.078790 	 -3.085076 
O 	 5.331803 	 0.248420 	 -1.956147 
O 	 2.135790 	 -5.384217 	 -2.712645 
O 	 6.221452 	 -2.478452 	 -1.740670 
O 	 -3.140443 	 4.578426 	 -4.803250 
O 	 -0.869325 	 -6.325331 	 -6.343210 
O 	 6.355478 	 3.297213 	 6.646102 
O 	 5.028585 	 -6.696052 	 2.879819 
O 	 2.492023 	 -4.033116 	 2.224690 
O 	 4.915531 	 -4.965459 	 -3.678440 
O 	 -2.679870 	 -3.746101 	 -0.044473 
O 	 -3.528669 	 1.680704 	 -2.523280 
O 	 -6.444849 	 7.101454 	 1.735740 
O 	 -3.217736 	 2.138852 	 4.587778 
O 	 -4.758035 	 6.205607 	 -2.344014 
O 	 -2.395594 	 -0.685451 	 0.393865 
O 	 -1.878760 	 3.853591 	 -7.478193 
O 	 -6.089455 	 4.319777 	 -5.241821 
O 	 -1.117158 	 3.053732 	 -3.707250 
O 	 5.550921 	 4.543498 	 -1.768366 
O 	 5.073712 	 1.384833 	 3.906213 
O 	 -5.871848 	 -1.655769 	 1.315955 
O 	 4.390456 	 -4.505760 	 0.217452 
O 	 -6.398187 	 0.594512 	 5.388910 
O 	 -0.323300 	 -3.117350 	 6.928604 
O 	 -3.961805 	 -7.337050 	 0.716476 
O 	 4.432035 	 -0.759833 	 1.845837 
O 	 6.485010 	 5.775235 	 -4.185018 
O 	 -0.803762 	 -5.486158 	 1.134904 
O 	 0.267774 	 -2.658008 	 1.285129 
O 	 3.002957 	 2.390787 	 -4.968709 
O 	 -0.005169 	 -0.210933 	 -5.110986 
O 	 0.833295 	 6.377772 	 -6.893898 
O 	 6.998747 	 -3.424316 	 0.614636 
O 	 -6.081166 	 1.858495 	 -3.693360 
O 	 6.530315 	 -2.525084 	 -4.886603 
O 	 5.095336 	 3.538986 	 1.196099 
O 	 -5.944734 	 -5.651164 	 3.373518 
O 	 -2.148026 	 5.320879 	 -1.229766 
O 	 7.160732 	 -5.637374 	 -2.151787 
O 	 7.122154 	 6.878892 	 -0.790684 
O 	 6.199646 	 1.090284 	 0.563671 
O 	 3.782445 	 -3.300428 	 6.687596 
O 	 6.228507 	 -0.998238 	 5.571554 
O 	 -4.684166 	 -5.314024 	 -1.175834 
O 	 2.588112 	 -2.655239 	 -1.456933 
O 	 1.070359 	 -6.826856 	 -0.555576 
O 	 3.468465 	 0.979936 	 7.050643 
O 	 3.562540 	 -6.648943 	 7.215651 
O 	 -1.925048 	 0.956543 	 7.213504 
O 	 -1.681287 	 -6.198886 	 -2.091864 
O 	 2.909259 	 4.599448 	 -3.228894 
O 	 1.751955 	 -5.168908 	 -5.610067 
O 	 -3.923454 	 -3.419593 	 2.342887 
O 	 0.733834 	 1.606847 	 2.047829 
O 	 6.795367 	 6.600013 	 4.947550 
O 	 0.674775 	 3.499356 	 5.758910 
O 	 1.172327 	 6.058043 	 4.782384 
O 	 -7.584018 	 1.346729 	 -6.422133 
O 	 -6.583501 	 4.298306 	 -2.103483 
O 	 -3.087655 	 -3.238209 	 -6.646376 
O 	 4.062391 	 5.826926 	 6.400022 
O 	 3.066546 	 -1.175914 	 -3.761645 
O 	 -3.923582 	 1.502624 	 0.721576 
O 	 0.675797 	 -0.061156 	 6.489127 
O 	 1.978969 	 -6.834389 	 3.037234 
O 	 -0.912359 	 3.251475 	 3.480626 
O 	 -4.656147 	 0.197048 	 -6.454662 
O 	 6.802126 	 -5.370746 	 5.370411 
O 	 -6.098963 	 -0.886201 	 -3.930399 
O 	 -4.931943 	 -4.279621 	 -4.248712 
O 	 -4.806209 	 -1.148834 	 -1.707596 
O 	 4.650476 	 4.479337 	 -6.018085 
O 	 -6.070964 	 -2.476778 	 -6.293638 
O 	 -5.554616 	 3.694385 	 4.880581 
O 	 1.670500 	 5.943279 	 0.907876 
O 	 -2.365978 	 -1.640455 	 -4.382808 
O 	 -5.275733 	 5.107618 	 7.029134 
O 	 5.934119 	 -5.222841 	 -6.848710 
O 	 -5.354106 	 -2.557383 	 5.147398 
O 	 5.560727 	 -0.756109 	 -6.721981 
O 	 2.015685 	 -0.952030 	 0.595702 
O 	 3.377133 	 -2.122717 	 4.104431 
O 	 2.451809 	 4.008443 	 2.698365 
O 	 1.303376 	 -5.673201 	 6.175070 
O 	 3.492755 	 3.070115 	 5.349402 
O 	 1.825615 	 -2.496706 	 -5.931888 
O 	 5.628411 	 2.327977 	 -4.054020 
O 	 -1.708630 	 -6.359593 	 5.399195 
O 	 -5.457601 	 -5.339884 	 6.557856 
O 	 -6.596658 	 1.118893 	 2.180989 
O 	 4.120744 	 7.201920 	 -3.958487 
O 	 2.596276 	 1.493007 	 -0.565388 
K 	 -2.440247 	 4.094855 	 1.061314 
