333
conformation = 28
H 	 -2.740912 	 6.771361 	 -4.414913 
H 	 -2.769636 	 -6.620601 	 -3.725398 
H 	 -6.292655 	 3.840333 	 1.083195 
H 	 -5.147730 	 3.240690 	 0.333499 
H 	 -0.789988 	 6.817863 	 3.181337 
H 	 -1.256733 	 -7.076532 	 1.986209 
H 	 -5.354363 	 -6.999598 	 -5.830293 
H 	 -3.843763 	 -7.036951 	 -5.999767 
H 	 -1.796252 	 5.452426 	 6.116101 
H 	 -2.375926 	 5.588895 	 4.650227 
H 	 -4.418978 	 4.873034 	 3.716590 
H 	 -3.865846 	 6.349050 	 3.426389 
H 	 1.309438 	 3.166899 	 -5.651476 
H 	 0.865967 	 4.613594 	 -6.137078 
H 	 -2.292572 	 -0.906907 	 4.052851 
H 	 -0.905137 	 -0.429781 	 3.570500 
H 	 1.122981 	 5.162880 	 -2.120361 
H 	 0.635693 	 5.823072 	 -0.807259 
H 	 -0.768817 	 -2.656395 	 3.538014 
H 	 0.420068 	 -3.441080 	 3.835506 
H 	 -7.622888 	 -7.169629 	 -4.701026 
H 	 7.131963 	 -5.834222 	 -5.599694 
H 	 1.765575 	 -0.663656 	 3.879556 
H 	 1.012149 	 0.470608 	 3.114332 
H 	 6.287691 	 -2.708131 	 3.084316 
H 	 6.358602 	 -2.146669 	 4.567000 
H 	 -4.260216 	 -1.069725 	 5.735633 
H 	 -3.104625 	 -0.025829 	 6.127033 
H 	 5.247768 	 7.680689 	 -0.960994 
H 	 4.242736 	 -6.143545 	 -0.475934 
H 	 -4.534559 	 -6.257985 	 3.433740 
H 	 -3.067795 	 -6.422584 	 4.031529 
H 	 -7.568518 	 5.886107 	 2.339986 
H 	 6.323301 	 4.537067 	 2.161962 
H 	 -0.445730 	 2.255985 	 0.011229 
H 	 -1.438743 	 1.268791 	 -0.495566 
H 	 2.125926 	 1.714937 	 -4.075174 
H 	 0.813633 	 0.930058 	 -3.550574 
H 	 4.077620 	 0.678051 	 -1.770682 
H 	 5.173561 	 1.065844 	 -2.760888 
H 	 1.819188 	 -4.991778 	 -3.858821 
H 	 2.176546 	 -4.132573 	 -2.526802 
H 	 5.479715 	 -1.515744 	 -2.053523 
H 	 5.626667 	 -3.035466 	 -2.195332 
H 	 -3.027002 	 4.231493 	 -4.114998 
H 	 -4.330516 	 4.716552 	 -4.829429 
H 	 -1.468325 	 -6.333750 	 -7.288316 
H 	 -1.498740 	 -6.398170 	 -5.723386 
H 	 5.750777 	 3.633772 	 5.912903 
H 	 5.455311 	 3.941606 	 -7.446590 
H 	 5.019122 	 7.559628 	 3.213324 
H 	 4.147162 	 -6.336143 	 2.424681 
H 	 2.950882 	 -3.731134 	 1.435019 
H 	 2.156344 	 -4.774967 	 2.428760 
H 	 5.331398 	 -5.153491 	 -2.888927 
H 	 3.954327 	 -4.636621 	 -3.502111 
H 	 -3.405789 	 -3.546655 	 -0.713710 
H 	 -3.248954 	 -3.348944 	 0.775079 
H 	 -2.889936 	 1.904662 	 -2.950353 
H 	 -3.439920 	 2.554057 	 -1.717021 
H 	 -6.676147 	 -6.769470 	 2.373471 
H 	 -5.798471 	 7.327059 	 1.310785 
H 	 -3.494676 	 1.369741 	 4.490479 
H 	 -4.127537 	 2.798876 	 4.672012 
H 	 -4.780098 	 6.646897 	 -1.418494 
H 	 -5.211908 	 5.740416 	 -2.575347 
H 	 -2.805912 	 -1.282969 	 0.088182 
H 	 -2.183087 	 -0.783413 	 1.405918 
H 	 -1.343302 	 3.726136 	 -7.051782 
H 	 -2.860549 	 4.107987 	 -6.758744 
H 	 -6.417326 	 3.560253 	 -5.019545 
H 	 -7.102120 	 5.030661 	 -5.171637 
H 	 -0.773708 	 3.072038 	 -2.914510 
H 	 -0.573676 	 3.664637 	 -4.325550 
H 	 4.506392 	 4.781140 	 -2.056164 
H 	 5.759961 	 3.855707 	 -2.034094 
H 	 4.800934 	 1.124545 	 4.722260 
H 	 4.733914 	 1.016049 	 3.127702 
H 	 -5.904071 	 -0.254009 	 1.481554 
H 	 -6.820346 	 -1.476548 	 1.225954 
H 	 3.784020 	 -3.400546 	 -0.476534 
H 	 5.009832 	 -4.058941 	 0.264036 
H 	 -6.431922 	 1.928398 	 5.448925 
H 	 -5.790009 	 0.497289 	 5.694851 
H 	 -0.301944 	 -2.677019 	 5.843333 
H 	 -0.034335 	 -3.538500 	 7.092340 
H 	 -3.705224 	 -6.802338 	 1.263878 
H 	 -4.272935 	 -6.513452 	 -0.106369 
H 	 4.494807 	 -0.996662 	 2.842110 
H 	 3.675516 	 -0.620921 	 1.566466 
H 	 6.550140 	 5.860252 	 -3.108331 
H 	 5.523057 	 6.488420 	 -4.070128 
H 	 -1.719932 	 -4.683307 	 0.638462 
H 	 -0.457698 	 -5.463800 	 0.026433 
H 	 0.894368 	 -3.154648 	 1.314372 
H 	 -0.629886 	 -3.024722 	 0.893191 
H 	 4.555903 	 2.477810 	 -4.422067 
H 	 3.037692 	 2.177920 	 -5.893791 
H 	 -0.925462 	 -0.768197 	 -5.111724 
H 	 -0.614723 	 0.563567 	 -5.884172 
H 	 1.468045 	 7.130947 	 -6.913756 
H 	 -0.036457 	 7.067037 	 -6.778378 
H 	 7.138661 	 -4.005932 	 0.319733 
H 	 6.531269 	 -2.863691 	 -0.243508 
H 	 -6.532960 	 1.273747 	 -3.892326 
H 	 -5.277782 	 1.789122 	 -3.061065 
H 	 7.036128 	 -1.818091 	 -4.371964 
H 	 5.832388 	 -2.842218 	 -4.327111 
H 	 5.104465 	 2.902861 	 0.739072 
H 	 5.129021 	 4.317414 	 0.206013 
H 	 -5.662308 	 -4.525335 	 3.502929 
H 	 -6.975821 	 -5.287146 	 4.042477 
H 	 -2.560920 	 5.999040 	 -1.937981 
H 	 -1.228041 	 5.169286 	 -1.644566 
H 	 7.089739 	 -6.424232 	 -2.106499 
H 	 -7.283656 	 -5.250131 	 -3.052459 
H 	 6.568315 	 6.242057 	 -0.951381 
H 	 -7.559749 	 7.134948 	 0.127736 
H 	 5.829705 	 1.061090 	 -0.478277 
H 	 5.455809 	 0.542534 	 0.973881 
H 	 3.263757 	 -2.839427 	 -7.552403 
H 	 3.330648 	 -4.127662 	 6.629451 
H 	 6.816670 	 -0.202664 	 5.542453 
H 	 5.762891 	 -0.898658 	 6.534359 
H 	 -4.561628 	 -5.286371 	 -2.196401 
H 	 -5.643793 	 -5.163783 	 -1.247796 
H 	 2.029695 	 -1.925707 	 -0.867631 
H 	 2.617657 	 -1.997930 	 -2.350888 
H 	 1.479552 	 -6.293105 	 -1.640777 
H 	 1.464692 	 -6.944528 	 -0.194809 
H 	 2.446180 	 0.800332 	 6.830826 
H 	 4.046002 	 0.635252 	 6.993833 
H 	 4.226657 	 -5.990979 	 -7.283908 
H 	 3.732271 	 -7.137637 	 6.732082 
H 	 -1.007941 	 0.844484 	 6.923901 
H 	 -2.142158 	 1.851434 	 6.834243 
H 	 -2.198742 	 -5.415723 	 -1.486739 
H 	 -1.266345 	 -6.567464 	 -1.847153 
H 	 2.351615 	 4.111605 	 -3.860346 
H 	 2.788564 	 5.608427 	 -3.754253 
H 	 0.775949 	 -5.299685 	 -5.931664 
H 	 1.398281 	 -3.924315 	 -5.906090 
H 	 -4.608654 	 -2.528305 	 2.258715 
H 	 -3.130628 	 -2.860970 	 2.814091 
H 	 1.143044 	 2.519673 	 1.974555 
H 	 -0.301610 	 2.396513 	 2.463870 
H 	 6.900925 	 5.863727 	 4.381504 
H 	 6.558051 	 6.466916 	 5.788298 
H 	 1.564614 	 3.605335 	 5.638671 
H 	 0.309597 	 3.812987 	 6.549308 
H 	 1.639743 	 6.063353 	 5.462011 
H 	 0.229724 	 5.819235 	 4.776195 
H 	 -6.805867 	 1.340349 	 -6.423830 
H 	 6.975491 	 2.237355 	 -7.045554 
H 	 -6.885683 	 3.666363 	 -2.530245 
H 	 -6.311880 	 4.176253 	 -1.261012 
H 	 -2.346725 	 -3.089841 	 -7.444211 
H 	 -2.864907 	 -3.773345 	 -6.110825 
H 	 3.953843 	 5.787879 	 7.300673 
H 	 4.049100 	 5.162810 	 5.889698 
H 	 2.261403 	 -0.073701 	 -3.650311 
H 	 3.665245 	 -0.781431 	 -3.700074 
H 	 -3.635282 	 1.100667 	 0.726046 
H 	 -4.563882 	 1.660992 	 1.794540 
H 	 0.691140 	 0.139578 	 5.551213 
H 	 0.423285 	 -0.621494 	 6.898125 
H 	 1.749969 	 7.533594 	 2.380436 
H 	 1.774580 	 -6.950831 	 3.891568 
H 	 -1.987045 	 2.995681 	 3.701566 
H 	 -0.595783 	 3.398713 	 4.383873 
H 	 -3.978182 	 0.639092 	 -6.490227 
H 	 -4.897312 	 -0.606263 	 -6.738619 
H 	 6.288051 	 -4.503865 	 4.692638 
H 	 6.048242 	 -6.006804 	 4.645392 
H 	 -5.933193 	 -0.818873 	 -3.284601 
H 	 -5.693094 	 -0.454458 	 -4.915545 
H 	 -5.473597 	 -3.805524 	 -4.900462 
H 	 -5.196401 	 -5.160791 	 -4.371771 
H 	 -4.275738 	 -0.042825 	 -1.891758 
H 	 -5.336799 	 -0.820761 	 -0.936135 
H 	 5.335336 	 5.083331 	 -5.487248 
H 	 3.998979 	 4.184176 	 -5.306943 
H 	 -7.113181 	 -2.768524 	 -6.241369 
H 	 -5.907135 	 -2.850050 	 -7.189980 
H 	 -6.494130 	 4.237697 	 4.173832 
H 	 -5.739918 	 4.524163 	 5.606476 
H 	 1.665667 	 5.506792 	 1.432499 
H 	 0.385743 	 6.457977 	 1.465090 
H 	 -2.560386 	 -2.131231 	 -3.934501 
H 	 -2.833483 	 -1.663012 	 -5.308828 
H 	 -5.684124 	 4.916956 	 -7.082603 
H 	 -5.212374 	 6.239655 	 7.015521 
H 	 6.457273 	 -4.763362 	 -7.525925 
H 	 5.660535 	 -4.194398 	 -6.325079 
H 	 -5.442025 	 -3.180901 	 5.522857 
H 	 -6.477793 	 -2.432643 	 4.655973 
H 	 6.081838 	 0.326241 	 -6.530150 
H 	 5.619872 	 -1.040184 	 -6.035501 
H 	 0.987480 	 -1.059351 	 0.693134 
H 	 1.790614 	 0.200727 	 0.257426 
H 	 2.880158 	 -2.602400 	 3.454101 
H 	 3.373170 	 -2.380788 	 4.894704 
H 	 2.346762 	 4.287605 	 3.575462 
H 	 3.226179 	 4.160498 	 2.209262 
H 	 1.931340 	 -5.749144 	 6.552694 
H 	 1.565695 	 -5.549307 	 5.018129 
H 	 3.543782 	 2.729240 	 5.894037 
H 	 3.719869 	 2.939782 	 4.400186 
H 	 0.852358 	 -1.580475 	 -6.097778 
H 	 2.024528 	 -1.669018 	 -5.163228 
H 	 6.116005 	 2.688313 	 -4.523725 
H 	 2.060981 	 1.887424 	 -1.499277 
H 	 -1.064958 	 -5.666877 	 5.199935 
H 	 -1.665230 	 -7.094298 	 5.404768 
H 	 -5.142207 	 -5.621614 	 6.989029 
H 	 -6.320517 	 -5.591270 	 6.015076 
H 	 -6.964526 	 1.257412 	 3.036040 
H 	 -7.546158 	 1.311627 	 1.634756 
H 	 3.915918 	 -6.984462 	 -3.087207 
H 	 3.768715 	 -6.836201 	 -4.705444 
H 	 2.913442 	 2.491613 	 -0.377110 
O 	 -2.689552 	 -7.169159 	 -4.532666 
O 	 -5.776793 	 4.033898 	 0.271945 
O 	 -0.951247 	 6.894413 	 2.206773 
O 	 -4.684810 	 -7.135493 	 -6.499775 
O 	 -1.770875 	 6.008289 	 5.301751 
O 	 -3.720370 	 5.358179 	 3.295684 
O 	 0.619022 	 3.660329 	 -6.122216 
O 	 -1.706444 	 -0.913263 	 3.239840 
O 	 0.494973 	 5.039795 	 -1.392337 
O 	 -0.467625 	 -3.330327 	 4.201292 
O 	 -7.135446 	 -6.427753 	 -5.129212 
O 	 0.948645 	 -0.135325 	 3.914214 
O 	 6.580867 	 -2.909751 	 3.986910 
O 	 -3.643461 	 -0.373843 	 5.360025 
O 	 4.295310 	 -6.952764 	 -0.980717 
O 	 -3.758090 	 -6.846472 	 3.468035 
O 	 7.101796 	 4.985452 	 2.657095 
O 	 -1.178312 	 2.194051 	 -0.615886 
O 	 1.655232 	 1.304208 	 -3.277228 
O 	 5.000218 	 0.456417 	 -2.058717 
O 	 2.132249 	 -5.049506 	 -2.893787 
O 	 6.103531 	 -2.246044 	 -2.013726 
O 	 -3.369067 	 4.759803 	 -4.859614 
O 	 -1.031034 	 -5.997209 	 -6.502394 
O 	 6.081786 	 3.577610 	 6.835038 
O 	 5.025440 	 -6.388999 	 2.872647 
O 	 2.322198 	 -3.810621 	 2.219664 
O 	 4.917890 	 -4.804798 	 -3.721503 
O 	 -2.698215 	 -3.406613 	 -0.027801 
O 	 -3.678412 	 1.854026 	 -2.333563 
O 	 -6.677233 	 7.372063 	 1.797603 
O 	 -3.268101 	 2.313156 	 4.516481 
O 	 -4.658737 	 6.528556 	 -2.386594 
O 	 -2.394784 	 -0.461805 	 0.449380 
O 	 -2.212353 	 3.973800 	 -7.495481 
O 	 -6.246441 	 4.525902 	 -5.303273 
O 	 -1.250749 	 3.290700 	 -3.724732 
O 	 5.349175 	 4.621815 	 -1.598221 
O 	 5.041904 	 1.584392 	 3.836330 
O 	 -5.898187 	 -1.225740 	 1.308233 
O 	 4.044964 	 -4.184413 	 0.032022 
O 	 -6.614411 	 0.988495 	 5.347875 
O 	 -0.401594 	 -2.642684 	 6.865202 
O 	 -4.156543 	 7.652331 	 0.532468 
O 	 4.576793 	 -0.632453 	 1.928845 
O 	 6.363942 	 5.968070 	 -4.094947 
O 	 -0.942311 	 -5.245698 	 0.912347 
O 	 0.127880 	 -2.532825 	 1.204989 
O 	 2.940741 	 2.595218 	 -5.016804 
O 	 -0.219337 	 -0.027565 	 -5.194298 
O 	 0.754409 	 6.475819 	 -6.809454 
O 	 6.818447 	 -3.181858 	 0.664589 
O 	 -5.941318 	 2.063161 	 -3.689159 
O 	 6.334419 	 -2.290831 	 -4.967224 
O 	 4.875649 	 3.827132 	 1.026588 
O 	 -6.157539 	 -5.378825 	 3.420010 
O 	 -2.122116 	 5.366965 	 -1.283699 
O 	 7.123021 	 -5.436922 	 -2.218159 
O 	 7.063590 	 7.102051 	 -0.850786 
O 	 5.959445 	 1.260599 	 0.482300 
O 	 3.619534 	 -3.192936 	 6.472317 
O 	 6.139876 	 -0.882444 	 5.591013 
O 	 -4.656919 	 -5.003531 	 -1.269951 
O 	 2.469153 	 -2.559410 	 -1.542436 
O 	 0.931644 	 -6.475266 	 -0.829968 
O 	 3.299302 	 1.283739 	 6.944214 
O 	 3.397239 	 -6.319409 	 7.201256 
O 	 -2.003733 	 0.897318 	 7.020009 
O 	 -1.894874 	 -5.942488 	 -2.248542 
O 	 2.554531 	 4.816347 	 -3.189054 
O 	 1.566074 	 -4.860773 	 -5.618410 
O 	 -3.920476 	 -3.188140 	 2.332892 
O 	 0.382056 	 1.874065 	 1.962853 
O 	 6.869843 	 6.721818 	 4.870984 
O 	 0.564650 	 3.699706 	 5.631117 
O 	 1.048155 	 6.327771 	 4.737381 
O 	 -7.718337 	 1.625997 	 -6.287915 
O 	 -6.629179 	 4.484039 	 -2.115435 
O 	 -3.064261 	 -3.041137 	 -6.731807 
O 	 4.037978 	 5.996833 	 6.369075 
O 	 2.719667 	 -0.963537 	 -3.845163 
O 	 -4.124114 	 1.933370 	 0.939783 
O 	 0.729841 	 0.207345 	 6.521013 
O 	 1.790201 	 -6.544875 	 2.985400 
O 	 -1.103262 	 3.415309 	 3.482041 
O 	 -4.883919 	 0.354757 	 -6.553894 
O 	 6.595880 	 -5.328547 	 5.136801 
O 	 -6.307334 	 -0.661209 	 -4.176243 
O 	 -4.905052 	 -4.247163 	 -4.225254 
O 	 -4.800451 	 -0.863487 	 -1.761614 
O 	 4.478313 	 4.812835 	 -5.931262 
O 	 -6.157493 	 -2.478622 	 -6.339402 
O 	 -5.782028 	 3.915108 	 4.760130 
O 	 1.308189 	 6.284708 	 0.920027 
O 	 -2.437529 	 -1.370581 	 -4.495305 
O 	 -5.291661 	 5.251630 	 6.995785 
O 	 5.983125 	 -5.002641 	 -6.729636 
O 	 -5.549952 	 -2.365304 	 4.994355 
O 	 5.417573 	 -0.380970 	 -6.746531 
O 	 1.918621 	 -0.693556 	 0.589705 
O 	 3.106872 	 -1.890020 	 4.069643 
O 	 2.371012 	 4.203685 	 2.607586 
O 	 1.199316 	 -5.448903 	 5.912222 
O 	 3.416000 	 3.449644 	 5.198724 
O 	 1.542044 	 -2.169859 	 -5.842338 
O 	 5.398976 	 2.491889 	 -3.883899 
O 	 -1.922808 	 -6.138998 	 5.352509 
O 	 -5.570044 	 -5.006099 	 6.337449 
O 	 -6.701005 	 1.332070 	 2.127843 
O 	 3.927115 	 7.471592 	 -3.938255 
O 	 2.613724 	 1.619370 	 -0.754833 
K 	 -2.521236 	 4.354740 	 0.977529 
