333
conformation = 54
H 	 -2.632491 	 6.736322 	 -4.475956 
H 	 -2.589509 	 -6.938804 	 -3.658061 
H 	 -6.160346 	 3.773765 	 1.051675 
H 	 -4.987847 	 3.274410 	 0.180764 
H 	 -0.910789 	 6.696843 	 2.957603 
H 	 -0.962121 	 -7.082138 	 1.875248 
H 	 -5.430161 	 -6.965788 	 -6.084288 
H 	 -3.883416 	 7.555444 	 -6.004100 
H 	 -1.765022 	 5.434175 	 6.077884 
H 	 -2.240158 	 5.519882 	 4.617942 
H 	 -4.393679 	 4.815391 	 3.611855 
H 	 -3.742943 	 6.302860 	 3.272299 
H 	 1.571206 	 3.228628 	 -5.668371 
H 	 0.787714 	 4.502653 	 -6.193081 
H 	 -2.142148 	 -0.739330 	 3.965518 
H 	 -0.656718 	 -0.807662 	 3.480449 
H 	 1.283238 	 4.966824 	 -2.158304 
H 	 0.911859 	 5.451362 	 -0.625867 
H 	 -0.684611 	 -2.528724 	 3.583199 
H 	 0.542749 	 -3.458398 	 3.750823 
H 	 -7.546627 	 7.526647 	 -4.880889 
H 	 -7.595500 	 -6.037741 	 -5.757443 
H 	 1.912486 	 -0.720171 	 3.713144 
H 	 1.061535 	 0.544293 	 3.197631 
H 	 6.444861 	 -2.835839 	 2.972227 
H 	 6.384236 	 -2.158339 	 4.431107 
H 	 -4.039222 	 -1.032348 	 5.571320 
H 	 -2.852655 	 -0.063879 	 5.936982 
H 	 5.296919 	 -7.171537 	 -1.039931 
H 	 4.354409 	 -5.973865 	 -0.861343 
H 	 -4.466141 	 -6.340070 	 3.763046 
H 	 -2.906296 	 -6.387829 	 3.874322 
H 	 -7.290124 	 5.683759 	 2.184830 
H 	 6.447847 	 4.769709 	 2.142153 
H 	 -0.197920 	 2.380396 	 -0.152884 
H 	 -1.010511 	 1.204537 	 -0.549946 
H 	 2.224062 	 1.795140 	 -3.925727 
H 	 0.832494 	 1.133866 	 -3.615585 
H 	 4.394648 	 0.778075 	 -1.732861 
H 	 5.544674 	 1.027529 	 -2.842733 
H 	 1.853449 	 -5.092758 	 -3.764261 
H 	 1.847185 	 -4.342357 	 -2.462606 
H 	 5.806286 	 -1.387235 	 -2.050996 
H 	 5.558410 	 -2.994024 	 -2.284674 
H 	 -2.855329 	 3.947856 	 -4.308921 
H 	 -4.171223 	 4.621504 	 -4.809678 
H 	 -1.432888 	 -5.957361 	 -7.293203 
H 	 -1.455543 	 -6.432283 	 -5.745929 
H 	 5.694171 	 3.212189 	 5.961861 
H 	 5.641807 	 3.918546 	 -7.547460 
H 	 5.060637 	 7.604773 	 3.282247 
H 	 4.201484 	 -6.295811 	 2.472700 
H 	 3.195924 	 -3.870419 	 1.499005 
H 	 2.283370 	 -4.759367 	 2.429553 
H 	 5.651833 	 -5.158102 	 -3.103923 
H 	 4.091243 	 -4.875920 	 -3.391447 
H 	 -3.410428 	 -3.675355 	 -0.634317 
H 	 -3.015430 	 -3.564644 	 0.858130 
H 	 -2.704089 	 1.710076 	 -2.950063 
H 	 -3.271266 	 2.447427 	 -1.786713 
H 	 -6.490010 	 -6.756154 	 2.336859 
H 	 -5.586191 	 7.429179 	 1.362004 
H 	 -3.488303 	 1.382078 	 4.804390 
H 	 -3.866849 	 2.859801 	 4.747814 
H 	 -4.494779 	 6.432921 	 -1.484484 
H 	 -5.298656 	 5.681833 	 -2.590859 
H 	 -2.801011 	 -1.249459 	 -0.092132 
H 	 -2.077922 	 -0.840559 	 1.213985 
H 	 -1.140916 	 3.692136 	 -7.197714 
H 	 -2.454991 	 4.314550 	 -6.766002 
H 	 -6.057718 	 3.682003 	 -4.834569 
H 	 -6.852722 	 5.018570 	 -5.042072 
H 	 -0.573862 	 2.955862 	 -3.028075 
H 	 -0.567606 	 3.431453 	 -4.576254 
H 	 4.603756 	 4.862780 	 -1.979838 
H 	 5.643046 	 3.828385 	 -2.291044 
H 	 5.476160 	 0.857395 	 4.318373 
H 	 4.917819 	 1.117611 	 2.948946 
H 	 -6.111384 	 -0.655966 	 1.846800 
H 	 -6.592812 	 -1.983245 	 1.084808 
H 	 4.035458 	 -3.558000 	 -0.585789 
H 	 5.135182 	 -3.973894 	 0.385683 
H 	 -6.231119 	 1.820439 	 5.219110 
H 	 -5.583262 	 0.464698 	 5.488614 
H 	 -0.280323 	 -3.218979 	 5.946783 
H 	 0.195401 	 -3.516999 	 7.300131 
H 	 -3.570333 	 -7.083347 	 1.428507 
H 	 -3.957230 	 -6.386447 	 0.012607 
H 	 4.320736 	 -1.024092 	 2.694613 
H 	 3.743821 	 -0.682102 	 1.264726 
H 	 6.770343 	 5.393762 	 -3.446824 
H 	 5.680243 	 6.473218 	 -4.032008 
H 	 -1.312034 	 -4.881177 	 0.205905 
H 	 -0.067990 	 -5.591993 	 0.470284 
H 	 0.856588 	 -3.324114 	 1.297739 
H 	 -0.503149 	 -2.943055 	 0.752631 
H 	 4.653949 	 2.399161 	 -4.404912 
H 	 3.096223 	 2.132650 	 -5.947291 
H 	 -0.951242 	 -0.330600 	 -4.958690 
H 	 -0.115484 	 0.607343 	 -5.925235 
H 	 1.655270 	 7.050977 	 -6.945733 
H 	 0.162366 	 7.161386 	 -7.035560 
H 	 -7.357427 	 -4.019806 	 0.689367 
H 	 6.995588 	 -2.893068 	 -0.379125 
H 	 -6.142198 	 1.043738 	 -3.923899 
H 	 -5.084876 	 1.852481 	 -3.225638 
H 	 7.211008 	 -1.885306 	 -4.536338 
H 	 6.124150 	 -3.066850 	 -4.493219 
H 	 5.555382 	 2.879253 	 0.877755 
H 	 5.163068 	 4.248424 	 0.196446 
H 	 -5.769709 	 -4.540940 	 3.065006 
H 	 -6.704665 	 -5.439611 	 3.941118 
H 	 -2.631584 	 5.905878 	 -1.905524 
H 	 -1.136126 	 5.244797 	 -1.654406 
H 	 -7.534055 	 -6.348777 	 -1.834221 
H 	 -7.221747 	 -5.525002 	 -3.081823 
H 	 7.142840 	 6.119752 	 -1.130086 
H 	 -7.432973 	 7.139386 	 0.002153 
H 	 5.921141 	 0.879063 	 -0.430744 
H 	 5.682654 	 0.638796 	 1.060647 
H 	 3.391400 	 -2.751320 	 7.262601 
H 	 3.189274 	 -3.953316 	 6.425233 
H 	 7.043064 	 -0.280355 	 5.584301 
H 	 6.047727 	 -0.904701 	 6.496767 
H 	 -4.536693 	 -4.886556 	 -2.234768 
H 	 -5.506038 	 -5.055034 	 -1.045584 
H 	 2.136921 	 -2.038659 	 -0.885350 
H 	 2.471011 	 -2.023318 	 -2.398502 
H 	 1.628643 	 -6.499298 	 -1.569878 
H 	 1.593719 	 -7.204357 	 -0.189699 
H 	 2.543902 	 0.845136 	 6.945473 
H 	 4.004703 	 0.430608 	 7.145640 
H 	 4.174366 	 -5.914057 	 -7.216173 
H 	 3.828150 	 7.575499 	 6.879652 
H 	 -0.990767 	 0.733018 	 6.802604 
H 	 -2.083485 	 1.945837 	 6.876957 
H 	 -2.066389 	 -5.460725 	 -1.531872 
H 	 -0.917468 	 -6.407629 	 -1.854353 
H 	 2.992054 	 4.041040 	 -3.910434 
H 	 2.940151 	 5.529074 	 -3.830786 
H 	 0.853032 	 -5.324944 	 -5.972305 
H 	 1.677765 	 -3.948593 	 -5.743957 
H 	 -4.404644 	 -2.398932 	 2.120499 
H 	 -3.159086 	 -2.906581 	 2.828197 
H 	 1.449852 	 2.247224 	 2.034416 
H 	 0.042223 	 2.357818 	 2.538387 
H 	 6.927808 	 5.936113 	 4.266729 
H 	 6.472811 	 6.496581 	 5.640192 
H 	 1.621067 	 3.591063 	 5.421014 
H 	 0.592073 	 3.763102 	 6.575781 
H 	 1.696026 	 6.195915 	 5.521149 
H 	 0.226016 	 6.112300 	 4.970074 
H 	 -6.596531 	 1.346087 	 -6.572147 
H 	 7.014493 	 2.065632 	 -7.179365 
H 	 -6.620061 	 3.685344 	 -2.758212 
H 	 -6.320628 	 4.126495 	 -1.192344 
H 	 -2.153442 	 -3.238788 	 -7.161615 
H 	 -2.987364 	 -3.842511 	 -6.180517 
H 	 4.161961 	 5.405025 	 7.130071 
H 	 3.881600 	 5.350036 	 5.585786 
H 	 2.399850 	 -0.177164 	 -3.634326 
H 	 3.856972 	 -0.759356 	 -3.643738 
H 	 -3.402165 	 0.971320 	 0.621016 
H 	 -4.619423 	 1.510912 	 1.418260 
H 	 0.964716 	 0.233842 	 5.446236 
H 	 0.634966 	 -0.839384 	 6.563168 
H 	 2.069754 	 -7.074067 	 2.123953 
H 	 1.387629 	 7.659313 	 3.503495 
H 	 -1.751295 	 3.130824 	 3.938331 
H 	 -0.274579 	 3.714175 	 3.994851 
H 	 -3.823894 	 0.587402 	 -6.966386 
H 	 -4.807450 	 -0.599530 	 -6.797018 
H 	 6.510605 	 -4.441653 	 4.727946 
H 	 6.200211 	 -5.934597 	 4.730306 
H 	 -5.762324 	 -1.028289 	 -3.265630 
H 	 -5.349508 	 -0.520573 	 -4.688252 
H 	 -5.188229 	 -3.493513 	 -4.906632 
H 	 -4.986141 	 -5.012656 	 -4.829446 
H 	 -4.388513 	 -0.028333 	 -1.840146 
H 	 -5.384125 	 -0.983326 	 -1.078684 
H 	 5.286950 	 5.070806 	 -5.414492 
H 	 4.294331 	 3.899675 	 -5.592436 
H 	 -7.019854 	 -2.359744 	 -6.160467 
H 	 -5.884625 	 -3.165973 	 -6.942655 
H 	 -6.295366 	 4.222875 	 4.183708 
H 	 -5.570818 	 4.538487 	 5.553339 
H 	 1.794634 	 5.558685 	 1.548515 
H 	 0.757751 	 6.536538 	 1.176359 
H 	 -2.594123 	 -2.118442 	 -3.833516 
H 	 -2.542169 	 -1.810873 	 -5.438518 
H 	 -5.619069 	 4.677958 	 -7.260958 
H 	 -5.047885 	 6.144506 	 7.292804 
H 	 6.168197 	 -4.993208 	 7.055016 
H 	 5.940643 	 -4.091660 	 -6.646030 
H 	 -5.371753 	 -3.246253 	 5.488039 
H 	 -6.266995 	 -2.413480 	 4.580064 
H 	 6.196836 	 0.261762 	 -6.652826 
H 	 5.811542 	 -1.189411 	 -6.124082 
H 	 1.168210 	 -1.233303 	 0.797279 
H 	 1.879564 	 0.151161 	 0.127459 
H 	 3.005255 	 -2.724349 	 3.460185 
H 	 3.388790 	 -2.329468 	 4.936886 
H 	 2.577546 	 4.558114 	 3.498030 
H 	 3.419838 	 4.038366 	 2.255014 
H 	 2.077337 	 -5.891420 	 6.460425 
H 	 1.617537 	 -5.417794 	 5.052087 
H 	 3.401458 	 2.612788 	 5.889128 
H 	 3.870836 	 2.792107 	 4.454547 
H 	 0.892383 	 -1.722653 	 -5.881717 
H 	 2.256234 	 -2.018521 	 -5.116524 
H 	 6.205941 	 2.624788 	 -4.789450 
H 	 2.235330 	 1.640572 	 -1.623611 
H 	 -0.998830 	 -5.620687 	 5.259458 
H 	 -1.458142 	 -7.153727 	 5.300938 
H 	 -5.144506 	 -5.933909 	 6.847502 
H 	 -6.280173 	 -5.279979 	 5.956978 
H 	 -7.175835 	 1.345589 	 2.893532 
H 	 -7.154157 	 1.336992 	 1.267570 
H 	 3.960568 	 -7.095943 	 -3.080234 
H 	 4.027791 	 -6.714818 	 -4.617889 
H 	 2.758839 	 2.518574 	 -0.383726 
O 	 -2.554014 	 -7.178185 	 -4.609019 
O 	 -5.594801 	 4.019940 	 0.307901 
O 	 -0.773277 	 6.881669 	 2.006238 
O 	 -4.625850 	 -7.205446 	 -6.648442 
O 	 -1.688252 	 6.014273 	 5.287250 
O 	 -3.600244 	 5.335692 	 3.246697 
O 	 0.680145 	 3.526566 	 -6.135634 
O 	 -1.584529 	 -1.009623 	 3.214224 
O 	 0.590735 	 4.985058 	 -1.448202 
O 	 -0.372099 	 -3.304215 	 4.083552 
O 	 -7.040191 	 -6.581049 	 -5.150667 
O 	 1.077710 	 -0.189591 	 3.820651 
O 	 6.775372 	 -2.946421 	 3.906608 
O 	 -3.506568 	 -0.308049 	 5.239185 
O 	 4.350836 	 -6.933984 	 -1.149184 
O 	 -3.666264 	 -6.830260 	 3.416426 
O 	 7.241266 	 4.883705 	 2.653453 
O 	 -1.016022 	 2.188714 	 -0.702763 
O 	 1.774325 	 1.223739 	 -3.235659 
O 	 5.234778 	 0.402061 	 -2.064996 
O 	 2.203031 	 -5.154429 	 -2.859029 
O 	 6.227475 	 -2.293317 	 -1.943290 
O 	 -3.194392 	 4.727157 	 -4.878526 
O 	 -0.878032 	 -6.100668 	 -6.476966 
O 	 6.289305 	 3.509506 	 6.675558 
O 	 5.089963 	 -6.482654 	 2.811305 
O 	 2.467547 	 -3.836191 	 2.144597 
O 	 4.984353 	 -4.873073 	 -3.768006 
O 	 -2.618004 	 -3.523610 	 -0.094693 
O 	 -3.563070 	 1.841873 	 -2.514570 
O 	 -6.481257 	 7.318033 	 1.724710 
O 	 -3.167756 	 2.264293 	 4.482370 
O 	 -4.661569 	 6.415760 	 -2.436692 
O 	 -2.324186 	 -0.526781 	 0.361023 
O 	 -1.983102 	 3.969247 	 -7.565836 
O 	 -6.117201 	 4.500826 	 -5.345725 
O 	 -1.113957 	 3.260887 	 -3.776579 
O 	 5.555547 	 4.658432 	 -1.749212 
O 	 5.105375 	 1.565587 	 3.818636 
O 	 -5.819062 	 -1.371573 	 1.242917 
O 	 4.287685 	 -4.301109 	 0.051775 
O 	 -6.443673 	 0.837598 	 5.311311 
O 	 -0.280997 	 -2.804940 	 6.812606 
O 	 -3.997780 	 -7.215107 	 0.542999 
O 	 4.588680 	 -0.636839 	 1.821352 
O 	 6.503081 	 5.925411 	 -4.202862 
O 	 -0.830830 	 -5.283286 	 0.945063 
O 	 0.302212 	 -2.534220 	 1.181154 
O 	 3.038542 	 2.548833 	 -5.057818 
O 	 -0.057544 	 -0.069470 	 -5.227432 
O 	 0.852497 	 6.490923 	 -6.901401 
O 	 6.957359 	 -3.232594 	 0.558302 
O 	 -5.923947 	 1.987474 	 -3.763759 
O 	 6.514215 	 -2.336348 	 -5.003227 
O 	 5.053469 	 3.729564 	 1.035315 
O 	 -5.960252 	 -5.470015 	 3.341356 
O 	 -2.052555 	 5.403416 	 -1.306077 
O 	 7.175784 	 -5.479200 	 -2.256003 
O 	 7.170586 	 7.064628 	 -0.909416 
O 	 6.147828 	 1.249624 	 0.449669 
O 	 3.792666 	 -3.187145 	 6.500842 
O 	 6.243013 	 -0.903015 	 5.529244 
O 	 -4.576705 	 -5.124268 	 -1.263716 
O 	 2.603307 	 -2.517687 	 -1.566352 
O 	 1.069714 	 -6.588557 	 -0.765154 
O 	 3.478669 	 1.203797 	 6.905107 
O 	 3.553046 	 -6.419005 	 7.132198 
O 	 -1.899923 	 0.995514 	 7.037454 
O 	 -1.734597 	 -6.008497 	 -2.239633 
O 	 2.776051 	 4.762943 	 -3.272518 
O 	 1.732503 	 -4.933307 	 -5.703382 
O 	 -3.850807 	 -3.245595 	 2.265623 
O 	 0.605447 	 1.809108 	 1.934875 
O 	 6.918617 	 6.716141 	 4.839526 
O 	 0.685406 	 3.679303 	 5.611634 
O 	 1.182318 	 6.249134 	 4.690509 
O 	 -7.579245 	 1.542425 	 -6.407374 
O 	 -6.515482 	 4.482860 	 -2.150725 
O 	 -3.024228 	 -3.079717 	 -6.757205 
O 	 4.117925 	 5.992894 	 6.312024 
O 	 2.943715 	 -0.986372 	 -3.885019 
O 	 -3.953154 	 1.786737 	 0.769781 
O 	 0.777291 	 0.142375 	 6.419981 
O 	 1.938806 	 -6.642900 	 2.954878 
O 	 -0.940038 	 3.376348 	 3.431086 
O 	 -4.701471 	 0.347577 	 -6.568111 
O 	 6.777257 	 -5.297179 	 5.177804 
O 	 -6.123863 	 -0.703542 	 -4.129342 
O 	 -4.859774 	 -4.199751 	 -4.297355 
O 	 -4.728361 	 -0.939901 	 -1.821982 
O 	 4.628393 	 4.718612 	 -6.007288 
O 	 -6.083286 	 -2.391846 	 -6.351411 
O 	 -5.589485 	 3.873824 	 4.767857 
O 	 1.553571 	 6.174796 	 0.812795 
O 	 -2.311162 	 -1.442080 	 -4.501788 
O 	 -5.211486 	 5.245856 	 6.931708 
O 	 6.027509 	 -5.043144 	 -6.840744 
O 	 -5.390546 	 -2.389003 	 4.989806 
O 	 5.563614 	 -0.507152 	 -6.794721 
O 	 2.009948 	 -0.773016 	 0.532418 
O 	 3.319360 	 -1.947537 	 4.037451 
O 	 2.462595 	 4.162513 	 2.604279 
O 	 1.330628 	 -5.523373 	 5.989822 
O 	 3.529692 	 3.329274 	 5.197668 
O 	 1.748431 	 -2.277434 	 -5.956072 
O 	 5.580075 	 2.478520 	 -4.055568 
O 	 -1.750302 	 -6.210999 	 5.303313 
O 	 -5.433953 	 -5.131224 	 6.372819 
O 	 -6.589519 	 1.291569 	 2.082796 
O 	 4.104441 	 7.435769 	 -4.026761 
O 	 2.664309 	 1.612753 	 -0.713831 
K 	 -2.413397 	 4.287939 	 0.938028 
