333
conformation = 52
H 	 -2.621727 	 6.739920 	 -4.451798 
H 	 -2.609858 	 -6.942018 	 -3.648197 
H 	 -6.169285 	 3.768294 	 1.063352 
H 	 -4.983057 	 3.298596 	 0.169922 
H 	 -0.895647 	 6.711475 	 2.954969 
H 	 -0.977544 	 -7.078793 	 1.894567 
H 	 -5.411322 	 -6.955517 	 -6.067500 
H 	 -3.871266 	 7.571370 	 -6.025759 
H 	 -1.749869 	 5.433055 	 6.072351 
H 	 -2.220678 	 5.505255 	 4.627891 
H 	 -4.398011 	 4.826877 	 3.603063 
H 	 -3.761769 	 6.303873 	 3.278723 
H 	 1.553796 	 3.233905 	 -5.655476 
H 	 0.813102 	 4.500962 	 -6.184255 
H 	 -2.158977 	 -0.773245 	 3.967416 
H 	 -0.664208 	 -0.803092 	 3.465246 
H 	 1.284163 	 4.991154 	 -2.172002 
H 	 0.888682 	 5.478292 	 -0.663274 
H 	 -0.691493 	 -2.527771 	 3.579389 
H 	 0.551407 	 -3.472254 	 3.773941 
H 	 -7.558304 	 7.554833 	 -4.883909 
H 	 -7.600044 	 -6.035523 	 -5.743442 
H 	 1.911400 	 -0.723007 	 3.741570 
H 	 1.050384 	 0.548059 	 3.198252 
H 	 6.447834 	 -2.830853 	 2.988806 
H 	 6.404515 	 -2.157118 	 4.431105 
H 	 -4.055342 	 -1.023462 	 5.588112 
H 	 -2.839643 	 -0.055048 	 5.921343 
H 	 5.292429 	 -7.174663 	 -1.048445 
H 	 4.365778 	 -5.983072 	 -0.832170 
H 	 -4.448846 	 -6.334892 	 3.732951 
H 	 -2.908236 	 -6.382939 	 3.854290 
H 	 -7.312623 	 5.688213 	 2.196938 
H 	 6.453180 	 4.762024 	 2.140093 
H 	 -0.206181 	 2.376611 	 -0.145436 
H 	 -1.019403 	 1.202099 	 -0.564419 
H 	 2.218834 	 1.788972 	 -3.950039 
H 	 0.853394 	 1.116954 	 -3.605485 
H 	 4.386172 	 0.763224 	 -1.738395 
H 	 5.523253 	 1.016567 	 -2.845116 
H 	 1.854718 	 -5.095445 	 -3.775779 
H 	 1.872974 	 -4.310765 	 -2.480521 
H 	 5.783858 	 -1.394137 	 -2.065412 
H 	 5.573293 	 -2.998286 	 -2.279419 
H 	 -2.864186 	 3.980030 	 -4.321860 
H 	 -4.180977 	 4.621252 	 -4.819630 
H 	 -1.437351 	 -5.999318 	 -7.304678 
H 	 -1.440630 	 -6.428563 	 -5.761535 
H 	 5.698353 	 3.246401 	 5.960935 
H 	 5.628023 	 3.912595 	 -7.568423 
H 	 5.060512 	 7.597066 	 3.273107 
H 	 4.217906 	 -6.301149 	 2.454338 
H 	 3.203254 	 -3.874265 	 1.485452 
H 	 2.301914 	 -4.790122 	 2.408011 
H 	 5.644425 	 -5.147617 	 -3.069740 
H 	 4.089083 	 -4.859778 	 -3.406861 
H 	 -3.398824 	 -3.654726 	 -0.637237 
H 	 -3.008489 	 -3.567086 	 0.841910 
H 	 -2.717915 	 1.706493 	 -2.947612 
H 	 -3.289625 	 2.456110 	 -1.779998 
H 	 -6.480953 	 -6.767966 	 2.328984 
H 	 -5.587321 	 7.444837 	 1.362116 
H 	 -3.480193 	 1.376019 	 4.789740 
H 	 -3.890143 	 2.869784 	 4.757607 
H 	 -4.498230 	 6.433135 	 -1.484647 
H 	 -5.282500 	 5.677068 	 -2.596968 
H 	 -2.800247 	 -1.233170 	 -0.098124 
H 	 -2.072366 	 -0.831004 	 1.218826 
H 	 -1.158401 	 3.691968 	 -7.192348 
H 	 -2.467245 	 4.297004 	 -6.734710 
H 	 -6.080510 	 3.700818 	 -4.858703 
H 	 -6.863607 	 5.005841 	 -5.060458 
H 	 -0.561328 	 2.940370 	 -3.014352 
H 	 -0.553615 	 3.460739 	 -4.572307 
H 	 4.607824 	 4.841993 	 -1.990959 
H 	 5.648144 	 3.829626 	 -2.275563 
H 	 5.442368 	 0.842337 	 4.339080 
H 	 4.919366 	 1.082133 	 2.949926 
H 	 -6.093576 	 -0.619399 	 1.832691 
H 	 -6.619397 	 -1.947174 	 1.080506 
H 	 4.034710 	 -3.553836 	 -0.569080 
H 	 5.143793 	 -4.002460 	 0.383069 
H 	 -6.229904 	 1.810258 	 5.234403 
H 	 -5.608892 	 0.475001 	 5.498380 
H 	 -0.266343 	 -3.179857 	 5.918881 
H 	 0.170365 	 -3.512643 	 7.289295 
H 	 -3.567596 	 -7.077470 	 1.415788 
H 	 -3.984056 	 -6.399343 	 -0.003361 
H 	 4.325362 	 -1.021673 	 2.716963 
H 	 3.750929 	 -0.681875 	 1.298611 
H 	 6.766717 	 5.426162 	 -3.442133 
H 	 5.684299 	 6.469202 	 -4.049547 
H 	 -1.341451 	 -4.853514 	 0.220132 
H 	 -0.062684 	 -5.599177 	 0.435279 
H 	 0.876229 	 -3.336540 	 1.275153 
H 	 -0.499988 	 -2.960192 	 0.764799 
H 	 4.663198 	 2.399404 	 -4.407099 
H 	 3.095099 	 2.147300 	 -5.949934 
H 	 -0.970801 	 -0.385399 	 -4.976608 
H 	 -0.124646 	 0.596272 	 -5.921599 
H 	 1.652792 	 7.054092 	 -6.953378 
H 	 0.147663 	 7.150339 	 -7.039974 
H 	 -7.368805 	 -4.055341 	 0.689316 
H 	 6.968850 	 -2.867467 	 -0.364598 
H 	 -6.155804 	 1.077125 	 -3.927565 
H 	 -5.085001 	 1.827745 	 -3.193324 
H 	 7.223261 	 -1.872004 	 -4.526725 
H 	 6.100696 	 -3.068434 	 -4.474458 
H 	 5.539337 	 2.863318 	 0.868482 
H 	 5.177169 	 4.287891 	 0.176792 
H 	 -5.760521 	 -4.555819 	 3.095305 
H 	 -6.740443 	 -5.431393 	 3.948121 
H 	 -2.597235 	 5.900137 	 -1.885817 
H 	 -1.138503 	 5.224178 	 -1.660138 
H 	 -7.533119 	 -6.370318 	 -1.857432 
H 	 -7.206458 	 -5.505713 	 -3.087138 
H 	 7.094640 	 6.126786 	 -1.121722 
H 	 -7.433665 	 7.135243 	 0.018847 
H 	 5.913748 	 0.886571 	 -0.419564 
H 	 5.669769 	 0.621414 	 1.069652 
H 	 3.420741 	 -2.744898 	 7.262453 
H 	 3.219613 	 -3.976040 	 6.409182 
H 	 7.019442 	 -0.280223 	 5.583560 
H 	 6.041259 	 -0.895869 	 6.508559 
H 	 -4.515022 	 -4.920128 	 -2.238309 
H 	 -5.504091 	 -5.072652 	 -1.038367 
H 	 2.122515 	 -2.044780 	 -0.906711 
H 	 2.471221 	 -2.030911 	 -2.393466 
H 	 1.625820 	 -6.525780 	 -1.570006 
H 	 1.603401 	 -7.191294 	 -0.170768 
H 	 2.539384 	 0.830671 	 6.944924 
H 	 4.010606 	 0.421089 	 7.118243 
H 	 4.181561 	 -5.916335 	 -7.220126 
H 	 3.812979 	 7.589043 	 6.881311 
H 	 -0.984004 	 0.725442 	 6.826185 
H 	 -2.085690 	 1.945980 	 6.878392 
H 	 -2.067730 	 -5.446847 	 -1.521532 
H 	 -0.928508 	 -6.426814 	 -1.857190 
H 	 2.960661 	 4.017156 	 -3.910020 
H 	 2.930119 	 5.543002 	 -3.827752 
H 	 0.856745 	 -5.343510 	 -5.968625 
H 	 1.683621 	 -3.959534 	 -5.768736 
H 	 -4.394648 	 -2.400402 	 2.144610 
H 	 -3.132364 	 -2.884051 	 2.822345 
H 	 1.448393 	 2.252828 	 2.030305 
H 	 0.035644 	 2.362876 	 2.519965 
H 	 6.938605 	 5.908821 	 4.268609 
H 	 6.488907 	 6.494477 	 5.653257 
H 	 1.632654 	 3.593189 	 5.443707 
H 	 0.573377 	 3.772945 	 6.583239 
H 	 1.684388 	 6.162232 	 5.521174 
H 	 0.237450 	 6.080216 	 4.980395 
H 	 -6.616032 	 1.353565 	 -6.564554 
H 	 7.006986 	 2.062529 	 -7.189019 
H 	 -6.656668 	 3.691965 	 -2.764703 
H 	 -6.298089 	 4.120569 	 -1.199672 
H 	 -2.162963 	 -3.233131 	 -7.197570 
H 	 -2.968342 	 -3.854175 	 -6.152048 
H 	 4.148982 	 5.406062 	 7.147383 
H 	 3.898542 	 5.317877 	 5.597248 
H 	 2.397071 	 -0.164992 	 -3.635825 
H 	 3.850430 	 -0.753060 	 -3.639121 
H 	 -3.400545 	 0.977361 	 0.602751 
H 	 -4.602483 	 1.537214 	 1.439320 
H 	 0.959982 	 0.205919 	 5.462444 
H 	 0.614773 	 -0.829824 	 6.569620 
H 	 2.059676 	 -7.117387 	 2.123977 
H 	 1.408243 	 7.663895 	 3.530272 
H 	 -1.764060 	 3.152220 	 3.928946 
H 	 -0.289210 	 3.692641 	 4.018370 
H 	 -3.794845 	 0.594110 	 -6.954646 
H 	 -4.789583 	 -0.606652 	 -6.801397 
H 	 6.525677 	 -4.451779 	 4.744997 
H 	 6.210576 	 -5.944437 	 4.730221 
H 	 -5.733078 	 -1.020911 	 -3.287587 
H 	 -5.332825 	 -0.517457 	 -4.667442 
H 	 -5.197121 	 -3.502185 	 -4.919872 
H 	 -4.984382 	 -5.049236 	 -4.799030 
H 	 -4.386755 	 -0.026288 	 -1.832439 
H 	 -5.365853 	 -0.951615 	 -1.094291 
H 	 5.308658 	 5.082101 	 -5.432071 
H 	 4.301272 	 3.911058 	 -5.570261 
H 	 -7.023348 	 -2.377340 	 -6.167278 
H 	 -5.863074 	 -3.153501 	 -6.969853 
H 	 -6.290028 	 4.230707 	 4.174603 
H 	 -5.572533 	 4.541175 	 5.568145 
H 	 1.802865 	 5.548355 	 1.556231 
H 	 0.741886 	 6.579142 	 1.188709 
H 	 -2.592854 	 -2.131612 	 -3.845866 
H 	 -2.554924 	 -1.795155 	 -5.447437 
H 	 -5.627283 	 4.694730 	 -7.231365 
H 	 -5.073273 	 6.136148 	 7.287162 
H 	 6.207668 	 -4.984308 	 7.060963 
H 	 5.922561 	 -4.079846 	 -6.614157 
H 	 -5.371499 	 -3.229972 	 5.489107 
H 	 -6.272780 	 -2.414511 	 4.580114 
H 	 6.194715 	 0.277419 	 -6.664975 
H 	 5.813850 	 -1.178198 	 -6.127727 
H 	 1.153465 	 -1.248612 	 0.774202 
H 	 1.899410 	 0.132240 	 0.136440 
H 	 3.005082 	 -2.710469 	 3.448492 
H 	 3.386996 	 -2.335459 	 4.921923 
H 	 2.597816 	 4.531407 	 3.496667 
H 	 3.430881 	 4.050651 	 2.263069 
H 	 2.074494 	 -5.879966 	 6.446637 
H 	 1.627651 	 -5.427478 	 5.060558 
H 	 3.406963 	 2.610870 	 5.896511 
H 	 3.858542 	 2.803616 	 4.438935 
H 	 0.895059 	 -1.718623 	 -5.896652 
H 	 2.243940 	 -2.001668 	 -5.106127 
H 	 6.204425 	 2.654228 	 -4.766089 
H 	 2.230231 	 1.644541 	 -1.621594 
H 	 -1.004584 	 -5.615601 	 5.251907 
H 	 -1.462382 	 -7.145297 	 5.302491 
H 	 -5.134885 	 -5.909836 	 6.853958 
H 	 -6.264232 	 -5.279751 	 5.949642 
H 	 -7.155883 	 1.333519 	 2.908625 
H 	 -7.149820 	 1.323671 	 1.299812 
H 	 3.953881 	 -7.067938 	 -3.120099 
H 	 4.006022 	 -6.709686 	 -4.610257 
H 	 2.784743 	 2.494008 	 -0.379729 
O 	 -2.553446 	 -7.178337 	 -4.609529 
O 	 -5.597573 	 4.017102 	 0.299840 
O 	 -0.774589 	 6.877663 	 2.016312 
O 	 -4.618861 	 -7.204756 	 -6.641070 
O 	 -1.686563 	 6.012448 	 5.283698 
O 	 -3.598112 	 5.333577 	 3.245938 
O 	 0.685676 	 3.530835 	 -6.139732 
O 	 -1.581767 	 -1.004510 	 3.213551 
O 	 0.593689 	 4.986581 	 -1.445611 
O 	 -0.369451 	 -3.307895 	 4.085715 
O 	 -7.037486 	 -6.574846 	 -5.153267 
O 	 1.079479 	 -0.189292 	 3.822201 
O 	 6.770382 	 -2.947891 	 3.907452 
O 	 -3.507831 	 -0.316199 	 5.244395 
O 	 4.357285 	 -6.939163 	 -1.141221 
O 	 -3.663850 	 -6.834732 	 3.418080 
O 	 7.240385 	 4.887855 	 2.649198 
O 	 -1.018677 	 2.186098 	 -0.700093 
O 	 1.776072 	 1.224399 	 -3.241571 
O 	 5.228764 	 0.403111 	 -2.068403 
O 	 2.207533 	 -5.151533 	 -2.863657 
O 	 6.228497 	 -2.293771 	 -1.952451 
O 	 -3.196788 	 4.724376 	 -4.878768 
O 	 -0.878739 	 -6.096480 	 -6.480847 
O 	 6.285073 	 3.511314 	 6.683014 
O 	 5.094122 	 -6.479242 	 2.811797 
O 	 2.464692 	 -3.833707 	 2.146865 
O 	 4.989066 	 -4.875253 	 -3.769861 
O 	 -2.614635 	 -3.519674 	 -0.093214 
O 	 -3.561606 	 1.840470 	 -2.508104 
O 	 -6.485813 	 7.319049 	 1.727573 
O 	 -3.162572 	 2.262057 	 4.479756 
O 	 -4.653076 	 6.419718 	 -2.437613 
O 	 -2.319501 	 -0.528935 	 0.364307 
O 	 -1.989211 	 3.965987 	 -7.568489 
O 	 -6.116596 	 4.498893 	 -5.346208 
O 	 -1.115352 	 3.260925 	 -3.777640 
O 	 5.553262 	 4.652980 	 -1.742608 
O 	 5.109859 	 1.567924 	 3.816746 
O 	 -5.814021 	 -1.365768 	 1.243067 
O 	 4.279760 	 -4.295660 	 0.044658 
O 	 -6.444779 	 0.843778 	 5.310505 
O 	 -0.278313 	 -2.798151 	 6.813094 
O 	 -3.998786 	 -7.219423 	 0.537933 
O 	 4.599186 	 -0.639433 	 1.822342 
O 	 6.503317 	 5.923451 	 -4.198043 
O 	 -0.830273 	 -5.282874 	 0.938871 
O 	 0.300652 	 -2.536193 	 1.179474 
O 	 3.041430 	 2.548156 	 -5.059892 
O 	 -0.058944 	 -0.068674 	 -5.230482 
O 	 0.854823 	 6.486922 	 -6.898185 
O 	 6.957359 	 -3.231402 	 0.559174 
O 	 -5.913989 	 1.986252 	 -3.762960 
O 	 6.511969 	 -2.335799 	 -5.006458 
O 	 5.050647 	 3.731353 	 1.031090 
O 	 -5.962041 	 -5.467781 	 3.342171 
O 	 -2.048153 	 5.398576 	 -1.308657 
O 	 7.179092 	 -5.479293 	 -2.257784 
O 	 7.173687 	 7.064342 	 -0.911151 
O 	 6.145274 	 1.248348 	 0.445690 
O 	 3.788488 	 -3.191428 	 6.495939 
O 	 6.245952 	 -0.906626 	 5.528847 
O 	 -4.572163 	 -5.119273 	 -1.268482 
O 	 2.604081 	 -2.522367 	 -1.567780 
O 	 1.069446 	 -6.582405 	 -0.775384 
O 	 3.477637 	 1.207678 	 6.902574 
O 	 3.552273 	 -6.416109 	 7.131727 
O 	 -1.897472 	 0.985489 	 7.030685 
O 	 -1.736470 	 -6.007984 	 -2.245702 
O 	 2.769270 	 4.763271 	 -3.270742 
O 	 1.729914 	 -4.928897 	 -5.702632 
O 	 -3.847659 	 -3.246491 	 2.264001 
O 	 0.597725 	 1.810621 	 1.933086 
O 	 6.925498 	 6.714131 	 4.837417 
O 	 0.686318 	 3.677657 	 5.606437 
O 	 1.183251 	 6.252076 	 4.688052 
O 	 -7.577802 	 1.543615 	 -6.402025 
O 	 -6.512277 	 4.479985 	 -2.150041 
O 	 -3.017466 	 -3.079932 	 -6.760228 
O 	 4.122430 	 5.993229 	 6.310689 
O 	 2.936311 	 -0.987903 	 -3.888333 
O 	 -3.956740 	 1.792535 	 0.779042 
O 	 0.784581 	 0.145078 	 6.420978 
O 	 1.937337 	 -6.638144 	 2.953764 
O 	 -0.941480 	 3.373492 	 3.430536 
O 	 -4.707188 	 0.345052 	 -6.569880 
O 	 6.772371 	 -5.302763 	 5.168358 
O 	 -6.129736 	 -0.703007 	 -4.138477 
O 	 -4.854050 	 -4.205689 	 -4.295930 
O 	 -4.724282 	 -0.939485 	 -1.822856 
O 	 4.626732 	 4.721624 	 -6.004231 
O 	 -6.081747 	 -2.399629 	 -6.352651 
O 	 -5.592716 	 3.873634 	 4.763032 
O 	 1.545971 	 6.177254 	 0.813211 
O 	 -2.308163 	 -1.439679 	 -4.504453 
O 	 -5.205908 	 5.243666 	 6.928593 
O 	 6.033913 	 -5.043934 	 -6.836781 
O 	 -5.392375 	 -2.390880 	 4.985453 
O 	 5.563554 	 -0.502474 	 -6.793982 
O 	 2.011647 	 -0.768856 	 0.531720 
O 	 3.314672 	 -1.948105 	 4.037081 
O 	 2.462766 	 4.161696 	 2.601014 
O 	 1.331657 	 -5.522906 	 5.981157 
O 	 3.531886 	 3.334837 	 5.192285 
O 	 1.743093 	 -2.273272 	 -5.952083 
O 	 5.577168 	 2.476008 	 -4.050026 
O 	 -1.752604 	 -6.211641 	 5.301998 
O 	 -5.434413 	 -5.128506 	 6.365570 
O 	 -6.589660 	 1.291533 	 2.079586 
O 	 4.103244 	 7.435238 	 -4.024003 
O 	 2.669493 	 1.611413 	 -0.720396 
K 	 -2.411542 	 4.289123 	 0.935716 
