333
conformation = 3
H 	 -9.234797 	 -650.691516 	 -95.446689 
H 	 -8.497945 	 -649.341167 	 -94.773810 
H 	 2.350930 	 346.715995 	 -90.079023 
H 	 3.192591 	 345.543693 	 -90.571998 
H 	 -6.793295 	 -650.477638 	 897.292864 
H 	 -7.092310 	 -649.789681 	 -89.137587 
H 	 3.323865 	 -649.676375 	 -97.009664 
H 	 -10.066374 	 -649.578882 	 -96.761184 
H 	 -8.015657 	 -652.166759 	 -99.917688 
H 	 -8.465803 	 -651.756612 	 -101.380368 
H 	 -10.485075 	 -652.505945 	 -102.015362 
H 	 -9.988479 	 -651.209124 	 897.367813 
H 	 -4.563000 	 345.757165 	 -97.069749 
H 	 -5.205027 	 347.214078 	 -97.341785 
H 	 -8.465752 	 341.863576 	 -102.011468 
H 	 -6.957091 	 341.913313 	 897.517336 
H 	 -4.791437 	 -652.466246 	 -93.109319 
H 	 -5.226234 	 -651.838238 	 -91.850727 
H 	 -6.927908 	 339.691040 	 897.652206 
H 	 -5.658805 	 338.811730 	 897.935787 
H 	 1.328906 	 -649.703708 	 -95.761367 
H 	 1.007832 	 -648.556025 	 -96.712341 
H 	 -4.483573 	 341.605398 	 897.938762 
H 	 -5.002269 	 342.974711 	 897.229724 
H 	 0.302579 	 339.737217 	 897.141350 
H 	 0.053296 	 340.356040 	 -101.349240 
H 	 -10.329267 	 341.210520 	 -100.605663 
H 	 -9.310051 	 342.149778 	 -99.679366 
H 	 -0.803056 	 -649.732342 	 -91.664604 
H 	 -2.056603 	 -648.772757 	 -91.593440 
H 	 4.186714 	 -649.208946 	 897.575133 
H 	 -9.365207 	 -649.163970 	 -101.706775 
H 	 1.330833 	 -651.663432 	 -88.830016 
H 	 0.281247 	 347.074083 	 -88.878681 
H 	 -6.597100 	 344.497768 	 -90.925364 
H 	 -7.908894 	 343.868910 	 -91.516380 
H 	 -3.896642 	 344.383358 	 -95.060424 
H 	 -5.279758 	 343.715405 	 -94.929378 
H 	 -2.036998 	 343.284764 	 -92.735255 
H 	 -0.959321 	 343.724363 	 -93.809657 
H 	 -4.353674 	 -647.481441 	 -94.913905 
H 	 -4.030645 	 338.275684 	 -93.484862 
H 	 -0.653759 	 340.979185 	 -93.143504 
H 	 -0.500550 	 339.451431 	 -93.379061 
H 	 -9.019677 	 346.886430 	 -95.252920 
H 	 989.503749 	 347.271799 	 -95.842248 
H 	 -7.545052 	 -648.725761 	 -98.512003 
H 	 -7.745604 	 -649.062312 	 -97.027958 
H 	 -0.246810 	 346.386443 	 -99.888514 
H 	 -0.756822 	 346.460738 	 -98.412882 
H 	 -0.775468 	 -649.943666 	 897.028120 
H 	 -1.963793 	 -649.060579 	 896.807954 
H 	 -3.172204 	 338.440364 	 -89.576083 
H 	 -4.035348 	 337.689904 	 896.557149 
H 	 -0.633425 	 -647.871549 	 -94.142313 
H 	 -2.058132 	 -647.483536 	 -94.552670 
H 	 -9.349157 	 338.884362 	 -91.803437 
H 	 -9.416029 	 339.277893 	 -90.293969 
H 	 -9.155689 	 344.501623 	 -94.019276 
H 	 -9.439712 	 344.968252 	 -92.578530 
H 	 2.076424 	 -649.290287 	 -88.833087 
H 	 2.941501 	 -650.421464 	 -89.565195 
H 	 -9.532858 	 343.827681 	 -101.577818 
H 	 -10.279670 	 345.268788 	 -101.588387 
H 	 3.959168 	 -650.683922 	 -92.538865 
H 	 3.658638 	 -651.623386 	 -93.646720 
H 	 -8.360205 	 341.179800 	 -90.881619 
H 	 -8.076623 	 341.979875 	 -89.665269 
H 	 -7.688344 	 346.376236 	 -97.809927 
H 	 -9.186981 	 346.754078 	 -97.999239 
H 	 2.409882 	 346.095329 	 -96.150722 
H 	 1.800021 	 347.410190 	 -95.944641 
H 	 -6.959448 	 345.927439 	 -93.831934 
H 	 -6.579932 	 345.951239 	 -95.349613 
H 	 -1.651696 	 347.020907 	 -93.113263 
H 	 -0.154992 	 346.543296 	 -92.994799 
H 	 -1.421344 	 343.705040 	 -101.281056 
H 	 -1.308823 	 343.351532 	 897.196938 
H 	 2.775235 	 342.358927 	 -89.589150 
H 	 2.078680 	 341.020923 	 -89.713671 
H 	 -2.612101 	 338.837985 	 -91.812485 
H 	 -1.342903 	 338.837555 	 -90.754154 
H 	 2.273538 	 344.539847 	 -100.538521 
H 	 2.994521 	 343.197241 	 -100.327721 
H 	 -6.702244 	 340.045190 	 -100.030162 
H 	 -6.047045 	 339.138356 	 -98.996903 
H 	 -9.837849 	 -649.556257 	 -89.800171 
H 	 -10.355225 	 -649.146837 	 -91.168061 
H 	 -1.480893 	 341.173857 	 896.853670 
H 	 -2.339690 	 341.690431 	 -89.406217 
H 	 0.507081 	 -651.737626 	 -94.202521 
H 	 -0.571799 	 -650.963145 	 -94.865995 
H 	 -7.868148 	 337.654507 	 -90.308857 
H 	 -6.515463 	 -648.103847 	 -91.039458 
H 	 -5.354505 	 339.437703 	 -89.348417 
H 	 -6.560447 	 339.342229 	 -90.395009 
H 	 -1.639889 	 345.016805 	 -95.318749 
H 	 -2.920433 	 344.502273 	 -96.836247 
H 	 -6.898113 	 341.885250 	 -95.693136 
H 	 -7.065532 	 342.968461 	 -96.662429 
H 	 -4.545007 	 -650.470217 	 -97.935336 
H 	 -5.999961 	 -650.573327 	 -97.373256 
H 	 1.240567 	 338.641592 	 -90.883017 
H 	 0.583860 	 339.935695 	 -91.108568 
H 	 2.497123 	 343.768418 	 -94.822153 
H 	 3.767772 	 344.552484 	 -94.270225 
H 	 0.857494 	 340.673060 	 -95.513525 
H 	 -0.193518 	 339.659076 	 -95.252000 
H 	 -0.966678 	 345.429063 	 -90.039037 
H 	 -1.304038 	 346.571433 	 -91.086269 
H 	 3.170614 	 337.922107 	 897.624515 
H 	 1.918284 	 -647.965107 	 -101.794018 
H 	 -8.707864 	 -651.711129 	 -93.010530 
H 	 -7.223561 	 -652.083036 	 -92.697830 
H 	 1.199629 	 -648.992448 	 -93.052397 
H 	 1.398615 	 -647.930711 	 -94.219295 
H 	 0.711631 	 -651.393079 	 -91.821949 
H 	 1.305727 	 -650.224309 	 -90.980313 
H 	 -0.155800 	 343.571311 	 -91.535472 
H 	 -0.667831 	 342.883170 	 -90.229745 
H 	 -3.224812 	 339.582781 	 -98.931250 
H 	 -2.611591 	 338.270646 	 -99.414926 
H 	 0.719798 	 342.291197 	 -100.506921 
H 	 -0.183956 	 341.560360 	 -99.405331 
H 	 -10.399050 	 -647.919805 	 -93.235032 
H 	 3.212297 	 -647.475911 	 -92.715418 
H 	 -3.793309 	 340.437454 	 -91.881715 
H 	 -3.385914 	 340.434207 	 -93.399717 
H 	 -4.710447 	 -648.350113 	 -92.517915 
H 	 -4.520692 	 -649.599454 	 -91.601226 
H 	 -3.627640 	 343.255838 	 -99.258715 
H 	 -2.189103 	 343.263163 	 -98.503649 
H 	 -1.787373 	 -648.521425 	 -98.496690 
H 	 -2.429873 	 -649.360129 	 -99.524829 
H 	 -7.147594 	 343.228495 	 -99.341229 
H 	 -8.318912 	 344.169765 	 -99.264286 
H 	 -8.357533 	 -648.104788 	 -92.489649 
H 	 -7.381199 	 -649.195640 	 -92.992034 
H 	 -3.793495 	 346.664213 	 -94.938745 
H 	 -3.249409 	 -651.830294 	 -94.618823 
H 	 -5.444497 	 -647.813486 	 -96.976113 
H 	 -4.757598 	 338.599946 	 -96.635349 
H 	 4.166247 	 339.921160 	 -88.798966 
H 	 -9.327778 	 339.729461 	 897.087335 
H 	 -5.090611 	 345.123198 	 -89.199326 
H 	 -6.416315 	 344.758608 	 896.665438 
H 	 0.755618 	 -651.603486 	 -101.698919 
H 	 0.518715 	 -651.244063 	 -100.221114 
H 	 -4.616766 	 345.816827 	 -100.476150 
H 	 -5.625932 	 346.061562 	 -99.314975 
H 	 -4.421193 	 -651.469975 	 -100.508861 
H 	 -5.724198 	 -651.826931 	 -101.151861 
H 	 1.948828 	 343.794023 	 -97.366331 
H 	 1.025714 	 344.877949 	 -97.980724 
H 	 2.645723 	 346.127435 	 -93.611336 
H 	 2.370619 	 346.855769 	 -92.244010 
H 	 -8.309417 	 339.789102 	 -98.324256 
H 	 -8.904490 	 338.548149 	 -97.390431 
H 	 -1.949093 	 -651.684921 	 -98.552264 
H 	 -2.181149 	 -652.455949 	 -99.972035 
H 	 -3.744538 	 342.361200 	 -94.576674 
H 	 -2.498602 	 341.692955 	 -95.217474 
H 	 -9.762643 	 343.646737 	 -90.204585 
H 	 4.122725 	 344.300554 	 -89.209610 
H 	 -5.291565 	 342.604946 	 -100.345376 
H 	 -5.325650 	 341.772819 	 -99.074294 
H 	 -4.607821 	 -649.786588 	 -88.690631 
H 	 -4.042000 	 -649.715290 	 897.757503 
H 	 -8.088826 	 345.407897 	 897.810366 
H 	 -6.758556 	 345.837326 	 -101.656045 
H 	 -10.173932 	 342.986256 	 -97.155522 
H 	 3.887002 	 341.827961 	 -97.882809 
H 	 0.170615 	 337.925892 	 -101.319803 
H 	 0.026400 	 -648.784779 	 -101.263593 
H 	 3.083250 	 341.686505 	 -94.602759 
H 	 2.885093 	 341.871252 	 -96.117409 
H 	 3.575150 	 338.696393 	 -95.952588 
H 	 3.503983 	 -647.862108 	 -95.366510 
H 	 -10.136750 	 342.335303 	 -92.826205 
H 	 3.912210 	 341.576484 	 -91.856929 
H 	 -0.976955 	 347.297843 	 -96.229358 
H 	 -2.296822 	 346.665777 	 -96.768958 
H 	 1.794228 	 339.643858 	 -97.361328 
H 	 2.915133 	 339.471830 	 -98.369835 
H 	 2.220489 	 346.632095 	 -101.830666 
H 	 2.957322 	 346.904008 	 -100.432992 
H 	 -4.391426 	 -651.989945 	 -89.833585 
H 	 -5.762760 	 -651.238506 	 -89.633434 
H 	 -8.455154 	 340.463010 	 -94.885681 
H 	 -8.802886 	 340.474309 	 -96.381371 
H 	 3.195412 	 -652.365242 	 -98.008956 
H 	 3.939778 	 -651.420361 	 -98.878840 
H 	 0.375763 	 337.745816 	 -98.573850 
H 	 -0.382576 	 338.207479 	 -97.134056 
H 	 3.419121 	 339.158339 	 -100.691419 
H 	 2.308007 	 340.066492 	 -101.326072 
H 	 -0.021809 	 342.835474 	 -97.473890 
H 	 -0.636467 	 341.451852 	 -97.172536 
H 	 -4.958339 	 341.513750 	 -90.037311 
H 	 -4.199326 	 342.721037 	 -90.749110 
H 	 -3.278380 	 339.808505 	 897.513182 
H 	 -2.815466 	 340.247292 	 -101.061873 
H 	 -3.793059 	 346.881693 	 897.488958 
H 	 -2.712153 	 346.551146 	 -88.762164 
H 	 -4.282626 	 -648.237837 	 -99.536036 
H 	 -4.489942 	 -648.127787 	 -100.991161 
H 	 -2.640910 	 345.236487 	 -100.111026 
H 	 -2.075856 	 345.583068 	 -101.468052 
H 	 -5.276333 	 340.951983 	 -97.210084 
H 	 -4.169508 	 340.907607 	 -96.147947 
H 	 -0.191673 	 344.461216 	 -95.426432 
H 	 -3.930959 	 344.282094 	 -92.717124 
H 	 -7.138468 	 -648.423218 	 -100.850147 
H 	 -7.897049 	 -649.711463 	 -100.504846 
H 	 3.846448 	 -647.814949 	 -98.976142 
H 	 2.785988 	 -648.391880 	 -99.833450 
H 	 2.060011 	 343.578027 	 897.172596 
H 	 1.228300 	 343.900733 	 -89.161551 
H 	 -2.231218 	 -649.685097 	 -94.100096 
H 	 -2.394597 	 -649.418863 	 -95.609133 
H 	 -3.026625 	 344.933476 	 -91.559574 
O 	 -8.763247 	 -649.838959 	 -95.597668 
O 	 3.019722 	 346.455694 	 -90.789720 
O 	 -7.140280 	 -650.655023 	 -88.673800 
O 	 4.193290 	 -649.690110 	 -97.484162 
O 	 -7.800375 	 -651.586319 	 -100.673558 
O 	 -9.797192 	 -652.185630 	 897.359657 
O 	 -5.436317 	 346.267490 	 -97.194564 
O 	 -7.836949 	 341.615196 	 897.286728 
O 	 -5.576765 	 -652.470838 	 -92.459815 
O 	 -6.499447 	 339.080403 	 -101.696701 
O 	 1.741103 	 -648.917730 	 -96.156595 
O 	 -5.140771 	 342.380825 	 -102.013363 
O 	 0.433129 	 339.582218 	 -101.931755 
O 	 -9.737036 	 341.983596 	 -100.532150 
O 	 -1.724768 	 -649.646633 	 -91.921000 
O 	 -9.808420 	 -649.505038 	 897.477546 
O 	 1.008357 	 347.483601 	 896.666749 
O 	 -7.294155 	 344.611698 	 -91.616332 
O 	 -4.466709 	 343.821857 	 -94.434953 
O 	 -1.229491 	 342.918535 	 -93.158035 
O 	 -3.841389 	 -647.581727 	 -94.078335 
O 	 0.026449 	 340.223338 	 -93.152616 
O 	 -9.508408 	 347.260110 	 -95.951471 
O 	 -7.146822 	 -648.580863 	 -97.618733 
O 	 -0.061733 	 346.073180 	 -98.989607 
O 	 -1.004690 	 -648.978045 	 896.917331 
O 	 -3.764583 	 338.618833 	 -88.810509 
O 	 -1.133722 	 337.816864 	 -94.770162 
O 	 -8.768846 	 339.198341 	 -91.087137 
O 	 -9.684277 	 344.301004 	 -93.228813 
O 	 2.044128 	 -650.166993 	 -89.290961 
O 	 -9.391623 	 344.784817 	 -101.459720 
O 	 4.304374 	 -650.904491 	 -93.425404 
O 	 -8.457912 	 342.086994 	 -90.541742 
O 	 -8.376334 	 346.380689 	 -98.492197 
O 	 2.556322 	 346.978231 	 -96.385200 
O 	 -7.352863 	 345.726941 	 -94.744169 
O 	 -0.857033 	 347.035497 	 -92.555174 
O 	 -1.007383 	 344.037014 	 897.881496 
O 	 3.002504 	 341.379910 	 -89.750940 
O 	 -2.155148 	 338.364466 	 -91.059357 
O 	 2.160816 	 343.593935 	 -100.622027 
O 	 -6.492178 	 339.967719 	 -99.116425 
O 	 -10.282797 	 -649.938913 	 -90.580118 
O 	 -1.434537 	 341.809156 	 -89.033319 
O 	 0.253065 	 -651.482698 	 -95.087937 
O 	 -7.028723 	 -647.918939 	 -90.209220 
O 	 -6.032603 	 339.934287 	 -89.868032 
O 	 -3.098273 	 345.097903 	 -96.089675 
O 	 -6.333351 	 342.456254 	 -96.299553 
O 	 -5.283560 	 -651.095702 	 -97.812710 
O 	 0.664339 	 339.279871 	 -90.354959 
O 	 2.870680 	 344.626734 	 -94.738606 
O 	 0.168268 	 340.185284 	 -96.022096 
O 	 -1.272777 	 346.376058 	 -90.058846 
O 	 2.585403 	 -647.899856 	 897.487837 
O 	 -8.175639 	 -652.225840 	 -92.418191 
O 	 1.163073 	 -648.027160 	 -93.261506 
O 	 0.952372 	 -650.461073 	 -91.859529 
O 	 -0.211029 	 343.706930 	 -90.582230 
O 	 -2.494137 	 339.233827 	 -99.497673 
O 	 0.054739 	 341.610760 	 -100.346427 
O 	 4.154387 	 -647.598060 	 -92.392532 
O 	 -3.608317 	 339.868911 	 -92.626873 
O 	 -5.202437 	 -649.014053 	 -92.025652 
O 	 -2.824778 	 343.824040 	 -99.025874 
O 	 -2.659059 	 -648.920313 	 -98.708470 
O 	 -8.037567 	 343.271287 	 -98.941636 
O 	 -8.013569 	 -648.527567 	 -93.333362 
O 	 -3.613183 	 347.332559 	 -94.222751 
O 	 -4.571656 	 -647.472019 	 -96.633954 
O 	 -9.966810 	 339.295528 	 -88.680350 
O 	 -5.764575 	 344.396713 	 -89.142061 
O 	 0.855807 	 -650.832942 	 -101.076153 
O 	 -5.523719 	 346.142540 	 -100.307434 
O 	 -5.009320 	 -651.152111 	 -101.223826 
O 	 1.093033 	 344.183091 	 -97.259431 
O 	 2.141542 	 346.912943 	 -93.250913 
O 	 -9.058795 	 339.445679 	 -97.835506 
O 	 -2.008165 	 -651.553369 	 -99.551577 
O 	 -3.381588 	 341.478968 	 -94.838992 
O 	 -10.208749 	 344.499816 	 -89.970081 
O 	 -5.310631 	 342.720148 	 -99.329977 
O 	 -4.262204 	 -649.100152 	 897.023138 
O 	 -7.248254 	 345.880374 	 897.532120 
O 	 3.863883 	 342.788182 	 -97.647838 
O 	 0.443383 	 -648.004881 	 -100.880762 
O 	 2.382121 	 341.814100 	 -95.273416 
O 	 3.982008 	 338.097715 	 -95.257511 
O 	 4.066577 	 341.657479 	 -92.789500 
O 	 -1.622486 	 347.353664 	 -96.982238 
O 	 2.759255 	 339.828459 	 -97.477774 
O 	 2.953795 	 346.361340 	 -101.243814 
O 	 -4.914354 	 -651.144195 	 -89.987137 
O 	 -8.580478 	 341.123051 	 -95.592625 
O 	 3.562147 	 -652.309641 	 -98.946783 
O 	 -0.024591 	 -647.633279 	 -97.712358 
O 	 3.223381 	 340.055269 	 -100.966983 
O 	 -0.711960 	 342.186130 	 -97.798331 
O 	 -4.105580 	 341.822404 	 -90.458929 
O 	 -3.053869 	 340.613434 	 -101.924480 
O 	 -3.695011 	 346.665185 	 896.541274 
O 	 -4.930500 	 -647.992021 	 -100.168104 
O 	 -2.629525 	 345.992400 	 -100.774097 
O 	 -4.597879 	 340.354973 	 -96.898848 
O 	 -0.739300 	 344.957434 	 -94.776890 
O 	 -8.032499 	 -648.727027 	 -100.558280 
O 	 3.219770 	 -647.539440 	 -99.659405 
O 	 2.142631 	 343.827685 	 -88.882651 
O 	 -2.226078 	 -650.140326 	 -94.950215 
O 	 -3.379947 	 344.092434 	 -91.893756 
K 	 -8.585429 	 346.876191 	 -90.049901 
