333
conformation = 79
H 	 -7.130424 	 -3.794427 	 -4.942656 
H 	 -6.775713 	 -2.559054 	 -4.176514 
H 	 4.208205 	 -6.442309 	 0.745073 
H 	 5.189077 	 7.542320 	 -0.130469 
H 	 -5.651304 	 -3.705989 	 2.266205 
H 	 -5.522096 	 -2.630540 	 1.200595 
H 	 4.710590 	 -2.841011 	 -6.851284 
H 	 6.192213 	 -2.790322 	 -6.414060 
H 	 -6.325842 	 -5.192387 	 5.555733 
H 	 -6.965776 	 -4.651407 	 4.259107 
H 	 6.110991 	 -5.587545 	 3.378219 
H 	 6.512725 	 -4.180606 	 2.854741 
H 	 -3.003555 	 -7.263014 	 -6.299261 
H 	 -3.874856 	 -6.049720 	 -6.565799 
H 	 -6.751405 	 3.888656 	 3.293732 
H 	 -5.239562 	 3.733733 	 2.787016 
H 	 -3.293480 	 -5.777013 	 -2.666075 
H 	 -3.469294 	 -5.437291 	 -1.117419 
H 	 -5.580896 	 1.755624 	 3.292585 
H 	 -4.172536 	 1.078885 	 2.935242 
H 	 2.990163 	 -3.164299 	 -5.362189 
H 	 2.639387 	 -1.957665 	 -6.187621 
H 	 -2.706576 	 3.573609 	 3.235092 
H 	 -3.505174 	 4.880694 	 2.526457 
H 	 1.876932 	 1.500387 	 2.542162 
H 	 1.867859 	 2.172781 	 3.954908 
H 	 6.513892 	 3.289653 	 4.552763 
H 	 7.295354 	 4.270158 	 5.629749 
H 	 0.569445 	 -2.747705 	 -1.373305 
H 	 -0.274351 	 -1.531294 	 -1.479749 
H 	 5.849239 	 -1.996581 	 3.188528 
H 	 7.352161 	 -2.199259 	 3.674989 
H 	 3.186313 	 -4.896180 	 1.832087 
H 	 1.997264 	 -5.834837 	 1.643892 
H 	 -4.618464 	 6.877345 	 -0.795729 
H 	 -5.673545 	 5.745437 	 -0.750661 
H 	 -2.263837 	 6.140514 	 -4.355951 
H 	 -3.651093 	 5.503674 	 -4.054906 
H 	 -0.008138 	 5.201567 	 -2.161678 
H 	 1.144954 	 5.463674 	 -3.131320 
H 	 -2.707580 	 -0.761983 	 -4.206033 
H 	 -2.755766 	 0.023192 	 -2.850857 
H 	 1.447675 	 3.037577 	 -2.189407 
H 	 0.961821 	 1.674457 	 -2.791040 
H 	 -7.217266 	 -6.331704 	 -4.740319 
H 	 6.262744 	 -5.790908 	 -5.215144 
H 	 -5.841768 	 -1.182618 	 7.366367 
H 	 -6.060042 	 -2.133369 	 -6.270184 
H 	 1.052465 	 7.395502 	 5.815469 
H 	 1.461141 	 -6.635431 	 6.906394 
H 	 0.716269 	 -2.855470 	 2.954366 
H 	 -0.438954 	 -1.970863 	 2.522411 
H 	 -1.425387 	 0.159518 	 0.959286 
H 	 -2.271215 	 -0.359355 	 2.129762 
H 	 1.127920 	 -0.943346 	 -3.800052 
H 	 -0.391397 	 -0.494222 	 -3.621802 
H 	 6.947401 	 0.321399 	 -0.965866 
H 	 -7.458613 	 0.875372 	 0.335882 
H 	 -7.300860 	 6.231627 	 -3.670752 
H 	 7.202358 	 6.663261 	 -2.243683 
H 	 3.960639 	 -2.447345 	 1.755475 
H 	 4.864829 	 -3.109547 	 0.797581 
H 	 6.777901 	 5.833925 	 4.294769 
H 	 6.364495 	 7.341531 	 4.112381 
H 	 5.761207 	 -3.808867 	 -1.976147 
H 	 4.943771 	 -4.851270 	 -2.838515 
H 	 -7.151350 	 3.036991 	 -0.566840 
H 	 -6.555894 	 3.719422 	 0.751698 
H 	 -5.583739 	 -6.674155 	 7.353219 
H 	 -6.957703 	 -6.139024 	 -7.223977 
H 	 4.100062 	 -6.892842 	 -5.430040 
H 	 3.723478 	 -5.438506 	 -5.286149 
H 	 -5.125509 	 -7.105953 	 -3.387287 
H 	 -4.978531 	 7.414251 	 -4.968202 
H 	 0.154738 	 -5.403976 	 -2.531515 
H 	 0.993901 	 -6.526215 	 -2.946118 
H 	 1.027732 	 5.164989 	 3.720916 
H 	 0.214415 	 5.554810 	 2.491745 
H 	 4.034469 	 3.539470 	 1.375914 
H 	 3.872056 	 2.143077 	 0.656144 
H 	 -0.667405 	 0.545702 	 -0.947377 
H 	 0.688396 	 0.593159 	 -0.190782 
H 	 4.076427 	 6.094722 	 4.664280 
H 	 4.864394 	 4.847677 	 4.750897 
H 	 -4.868413 	 1.032536 	 5.483588 
H 	 -4.009590 	 1.105264 	 6.740577 
H 	 6.728278 	 -2.658021 	 1.117838 
H 	 6.665993 	 -1.979969 	 -0.324728 
H 	 -0.377273 	 3.301241 	 2.141857 
H 	 -0.893495 	 3.724231 	 0.771735 
H 	 2.123842 	 -5.105384 	 -3.968204 
H 	 1.232022 	 -3.920125 	 -4.497207 
H 	 -5.851025 	 -0.606731 	 -0.156989 
H 	 -4.430296 	 -1.241681 	 0.222163 
H 	 -3.759027 	 1.066395 	 0.982829 
H 	 -4.985022 	 1.538109 	 0.186857 
H 	 0.150296 	 6.887295 	 -4.911147 
H 	 -1.308980 	 6.182827 	 -6.052967 
H 	 -5.430094 	 4.341905 	 -5.211478 
H 	 -4.576369 	 4.916406 	 -6.427840 
H 	 -2.794984 	 -3.657365 	 -7.153163 
H 	 -4.266445 	 -3.177382 	 -7.171102 
H 	 3.046437 	 0.309823 	 0.271277 
H 	 2.257039 	 1.283587 	 -0.880664 
H 	 4.258722 	 5.454592 	 -4.345888 
H 	 5.300826 	 6.533699 	 -4.249212 
H 	 2.604175 	 2.496670 	 -4.720142 
H 	 1.727638 	 1.142620 	 -5.020686 
H 	 0.990254 	 7.189216 	 0.592557 
H 	 0.460255 	 -6.493913 	 -0.327941 
H 	 4.723593 	 -0.220172 	 2.529090 
H 	 3.823747 	 -0.885827 	 3.637593 
H 	 -7.241712 	 -4.885011 	 -2.496707 
H 	 -5.752029 	 -4.836214 	 -2.040126 
H 	 2.564050 	 -1.920504 	 -2.129326 
H 	 3.102197 	 -1.446261 	 -3.484606 
H 	 3.189724 	 -4.000397 	 -1.854114 
H 	 3.063651 	 -3.318381 	 -0.420903 
H 	 1.644702 	 5.408600 	 -0.903044 
H 	 1.157639 	 4.885172 	 0.460630 
H 	 -1.156262 	 1.891484 	 6.751397 
H 	 -1.327694 	 0.535151 	 5.930630 
H 	 2.616849 	 3.876512 	 5.132892 
H 	 1.429246 	 3.505998 	 6.009204 
H 	 5.783231 	 -0.411892 	 -2.623826 
H 	 4.757130 	 -0.771531 	 -1.463997 
H 	 -2.001019 	 2.599961 	 -1.277852 
H 	 -1.737840 	 2.458169 	 -2.777641 
H 	 -2.993763 	 -1.737393 	 -1.763871 
H 	 -2.924948 	 -3.139434 	 -1.149222 
H 	 -1.939869 	 5.073736 	 6.446958 
H 	 -0.501353 	 4.965786 	 7.099213 
H 	 -0.447869 	 -1.564787 	 7.331323 
H 	 -0.489912 	 -2.872211 	 6.363498 
H 	 -5.631072 	 5.193047 	 6.235061 
H 	 -6.683101 	 6.455398 	 6.391485 
H 	 -6.770771 	 -1.195144 	 -1.973359 
H 	 -5.343832 	 -1.817620 	 -2.149617 
H 	 -1.420473 	 -6.463283 	 -4.432525 
H 	 -1.454647 	 -4.855614 	 -4.175092 
H 	 -3.660833 	 -0.947235 	 -6.422148 
H 	 -2.753171 	 0.352777 	 -6.106889 
H 	 5.991721 	 1.988762 	 1.596289 
H 	 6.792646 	 1.417179 	 2.688175 
H 	 -3.058387 	 6.831996 	 1.593790 
H 	 -4.469142 	 6.718458 	 2.038283 
H 	 2.355672 	 -4.380772 	 3.628181 
H 	 1.649133 	 -4.188644 	 5.010099 
H 	 -2.999024 	 -6.959414 	 4.739854 
H 	 -3.571327 	 -6.941583 	 6.184807 
H 	 -3.022401 	 -3.733798 	 4.989050 
H 	 -4.280258 	 -4.451640 	 4.527904 
H 	 3.726012 	 5.654822 	 -6.994452 
H 	 2.683936 	 6.648489 	 7.266616 
H 	 4.223754 	 -6.883325 	 -2.953374 
H 	 3.927428 	 -6.076356 	 -1.675683 
H 	 -6.668153 	 1.197643 	 7.447867 
H 	 6.966125 	 0.457355 	 -6.824050 
H 	 -0.222460 	 -5.212872 	 6.559555 
H 	 -0.799398 	 -5.109537 	 5.134453 
H 	 -1.948188 	 4.231637 	 -4.128911 
H 	 -0.514302 	 3.668673 	 -4.165793 
H 	 7.068998 	 5.266877 	 0.056121 
H 	 5.702203 	 5.743867 	 0.668968 
H 	 -3.690718 	 4.618343 	 4.992462 
H 	 -3.784114 	 3.517526 	 6.022498 
H 	 -2.560495 	 -2.457463 	 1.523730 
H 	 -2.998136 	 -3.068128 	 2.881507 
H 	 -5.960248 	 7.155883 	 3.468209 
H 	 -4.989598 	 -6.592068 	 3.651633 
H 	 6.582573 	 4.887211 	 7.355931 
H 	 5.347448 	 3.932712 	 -7.363979 
H 	 2.138613 	 -0.011305 	 4.293052 
H 	 1.947141 	 -1.603579 	 4.426179 
H 	 4.871200 	 3.545911 	 -3.667278 
H 	 4.943138 	 3.422000 	 -5.141636 
H 	 5.163604 	 1.202064 	 -5.076204 
H 	 5.247553 	 -0.318066 	 -5.539101 
H 	 5.885711 	 4.342385 	 -2.217426 
H 	 5.283416 	 3.319427 	 -1.332486 
H 	 0.612673 	 -5.698211 	 -5.724225 
H 	 -0.563018 	 -6.533564 	 -6.345687 
H 	 3.416474 	 2.173214 	 -6.440252 
H 	 4.377507 	 1.241735 	 -7.343514 
H 	 3.969999 	 -6.523194 	 3.900002 
H 	 4.830301 	 -6.020319 	 5.124955 
H 	 -2.362329 	 -5.110233 	 0.887873 
H 	 -3.850867 	 -4.389426 	 0.682957 
H 	 -7.158093 	 2.499297 	 -4.057319 
H 	 -7.070396 	 2.242361 	 -5.628462 
H 	 4.752578 	 -5.756301 	 7.287396 
H 	 5.522799 	 -4.483481 	 6.944512 
H 	 1.425329 	 -0.809788 	 6.517384 
H 	 1.480701 	 0.333497 	 -7.359738 
H 	 5.176099 	 1.099270 	 4.924380 
H 	 4.195811 	 1.968410 	 4.119033 
H 	 1.757800 	 4.477857 	 -7.062669 
H 	 0.999700 	 3.122509 	 -6.570179 
H 	 -3.217028 	 3.086778 	 0.555260 
H 	 -2.746376 	 4.522694 	 -0.110586 
H 	 -1.374917 	 1.576012 	 3.178831 
H 	 -0.838583 	 2.263270 	 4.471060 
H 	 -2.038985 	 -5.766266 	 2.952815 
H 	 -1.077638 	 -6.434385 	 2.014749 
H 	 -2.397699 	 -1.542542 	 6.086148 
H 	 -2.998847 	 -1.183754 	 4.698063 
H 	 -1.014457 	 7.032476 	 5.627737 
H 	 -0.450732 	 7.136472 	 4.180165 
H 	 -3.443891 	 2.669001 	 -6.262719 
H 	 -1.974561 	 2.471992 	 -5.910674 
H 	 1.647059 	 6.345536 	 -5.191231 
H 	 -2.366975 	 5.849267 	 -1.958267 
H 	 -5.322995 	 -1.459821 	 4.788058 
H 	 -6.155798 	 -2.732383 	 5.152203 
H 	 5.406914 	 -1.558510 	 6.321388 
H 	 4.003157 	 -0.955812 	 5.864567 
H 	 3.179939 	 6.022350 	 2.364580 
H 	 3.260988 	 5.672983 	 0.859062 
H 	 -0.363146 	 -2.895967 	 -3.567004 
H 	 -0.160943 	 -2.231123 	 -4.778395 
H 	 -2.117330 	 6.973316 	 -0.933427 
O 	 -7.094009 	 -2.813444 	 -5.096754 
O 	 4.839046 	 -6.479922 	 -0.030535 
O 	 -5.279545 	 -3.594363 	 1.385472 
O 	 5.629888 	 -2.843362 	 -7.189866 
O 	 -6.226905 	 -4.493708 	 4.859731 
O 	 6.770873 	 -5.147650 	 2.797937 
O 	 -3.918335 	 -7.026694 	 -6.541397 
O 	 -6.122027 	 3.331191 	 2.773330 
O 	 -3.942125 	 -5.580629 	 -1.923908 
O 	 -4.900195 	 1.096192 	 3.596026 
O 	 3.321793 	 -2.277192 	 -5.582974 
O 	 -3.452954 	 4.204592 	 3.300201 
O 	 2.317462 	 1.492622 	 3.407140 
O 	 6.900809 	 4.171697 	 4.726054 
O 	 -0.263017 	 -2.484536 	 -1.765768 
O 	 6.710069 	 -2.370404 	 2.954187 
O 	 2.762424 	 -5.677356 	 2.240984 
O 	 -5.473693 	 6.596155 	 -1.203005 
O 	 -2.795791 	 5.646684 	 -3.617987 
O 	 0.818908 	 4.815302 	 -2.490649 
O 	 -2.387165 	 -0.823376 	 -3.244402 
O 	 1.704210 	 2.085267 	 -2.269940 
O 	 7.244403 	 -5.751675 	 -5.343946 
O 	 -5.387985 	 -1.763810 	 -6.875769 
O 	 1.841381 	 -7.041881 	 6.102855 
O 	 0.504994 	 -2.136278 	 2.344692 
O 	 -2.025020 	 0.526305 	 1.689118 
O 	 0.392299 	 -0.395860 	 -4.213440 
O 	 -7.202356 	 0.815175 	 -0.584252 
O 	 6.854403 	 6.244051 	 -3.066084 
O 	 3.937973 	 -3.239943 	 1.191524 
O 	 7.161287 	 6.709566 	 4.051870 
O 	 5.618214 	 -4.130816 	 -2.878154 
O 	 -6.916792 	 3.879152 	 -0.142983 
O 	 -6.390597 	 -6.476797 	 6.886044 
O 	 4.293990 	 -6.018861 	 -5.774016 
O 	 -5.634656 	 -7.286449 	 -4.244179 
O 	 1.030751 	 -5.789225 	 -2.310206 
O 	 0.556904 	 5.947931 	 3.368797 
O 	 4.506916 	 2.901324 	 0.780076 
O 	 -0.122867 	 0.056657 	 -0.314010 
O 	 3.987478 	 5.153159 	 4.851257 
O 	 -4.846910 	 1.438938 	 6.395561 
O 	 6.423177 	 -2.770419 	 0.187462 
O 	 -0.095741 	 3.807592 	 1.304571 
O 	 1.964139 	 -4.559771 	 -4.722648 
O 	 -5.318040 	 -0.925376 	 0.607033 
O 	 -4.254487 	 1.911056 	 0.751608 
O 	 -1.517114 	 6.955381 	 -5.505260 
O 	 -4.520176 	 4.357745 	 -5.644431 
O 	 -3.686212 	 -3.953861 	 7.464286 
O 	 2.485032 	 1.137641 	 0.077010 
O 	 4.289386 	 6.427231 	 -4.230851 
O 	 2.012722 	 2.037065 	 -5.417674 
O 	 0.579353 	 -6.796113 	 0.664988 
O 	 4.433233 	 -1.086381 	 2.834974 
O 	 -6.673079 	 -5.007589 	 -1.769998 
O 	 2.643691 	 -1.073400 	 -2.687846 
O 	 2.601952 	 -3.457472 	 -1.322455 
O 	 1.684636 	 5.653563 	 0.027873 
O 	 -0.736970 	 1.269205 	 6.157670 
O 	 1.708627 	 3.569659 	 5.029006 
O 	 5.688868 	 -0.748156 	 -1.713236 
O 	 -1.930648 	 1.912195 	 -1.990177 
O 	 -3.448918 	 -2.264616 	 -1.084360 
O 	 -1.051003 	 5.540943 	 6.520416 
O 	 -0.953741 	 -2.088091 	 6.679802 
O 	 -6.444111 	 5.528772 	 6.681596 
O 	 -6.196349 	 -1.635257 	 -2.625261 
O 	 -1.600220 	 -5.733808 	 -3.765660 
O 	 -2.765579 	 -0.608164 	 -6.143172 
O 	 6.453507 	 1.143837 	 1.807481 
O 	 -3.775892 	 6.170178 	 1.513354 
O 	 2.265740 	 -3.733502 	 4.412912 
O 	 -3.841925 	 -6.839034 	 5.227143 
O 	 -3.346523 	 -4.275613 	 4.246828 
O 	 2.795456 	 5.910058 	 -6.965060 
O 	 3.792465 	 -6.040231 	 -2.642672 
O 	 7.289592 	 1.328891 	 -7.181148 
O 	 -0.458347 	 -4.508242 	 5.862350 
O 	 -1.442148 	 3.386537 	 -4.296056 
O 	 6.457735 	 6.060390 	 0.176870 
O 	 -3.847294 	 4.502090 	 5.950317 
O 	 -2.536594 	 -2.270548 	 2.496663 
O 	 -5.427314 	 -7.080472 	 2.944563 
O 	 5.726124 	 4.762190 	 -6.989355 
O 	 2.284708 	 -0.800323 	 4.841268 
O 	 4.284728 	 3.676063 	 -4.460191 
O 	 5.446140 	 0.290355 	 -4.785949 
O 	 5.571222 	 3.414847 	 -2.239284 
O 	 0.132942 	 -5.861549 	 -6.562134 
O 	 4.311152 	 2.092126 	 -6.833204 
O 	 4.828653 	 -6.642924 	 4.343115 
O 	 -2.840913 	 -4.397113 	 0.371749 
O 	 -6.888072 	 2.923134 	 -4.914914 
O 	 5.102263 	 -5.225676 	 6.496347 
O 	 1.409877 	 -0.660249 	 -7.389074 
O 	 5.030361 	 2.007454 	 4.615339 
O 	 1.040134 	 3.803465 	 -7.259180 
O 	 -2.500371 	 3.613147 	 0.057731 
O 	 -1.137615 	 2.443287 	 3.566846 
O 	 -2.067487 	 -6.325395 	 2.160613 
O 	 -3.214906 	 -1.107006 	 5.644488 
O 	 -1.027430 	 -7.270036 	 4.816758 
O 	 -2.687019 	 2.066156 	 -6.471918 
O 	 1.112441 	 6.891573 	 -4.596085 
O 	 -6.223301 	 -1.793830 	 4.863832 
O 	 4.919594 	 -0.777343 	 6.027148 
O 	 3.783593 	 5.683026 	 1.643391 
O 	 -0.394994 	 -3.136574 	 -4.493649 
O 	 -1.926149 	 6.061699 	 -1.099908 
K 	 -6.960534 	 -6.241912 	 0.528043 
