333
conformation = 40
H 	 -6.994982 	 -3.638882 	 -4.937094 
H 	 -7.109159 	 -2.311844 	 -4.182985 
H 	 4.345522 	 -6.626376 	 0.547946 
H 	 5.548779 	 -7.104240 	 -0.322316 
H 	 -5.238975 	 -3.633782 	 2.576809 
H 	 -5.486790 	 -2.570722 	 1.469004 
H 	 5.182244 	 -2.436125 	 -6.466606 
H 	 6.718279 	 -2.710475 	 -6.543447 
H 	 -6.092639 	 -4.955654 	 5.591270 
H 	 -6.612726 	 -4.926910 	 4.118068 
H 	 6.078732 	 -5.468919 	 3.102750 
H 	 6.616071 	 -4.105594 	 2.855023 
H 	 -2.969714 	 -7.173021 	 -6.102628 
H 	 -3.506703 	 -5.852200 	 -6.646873 
H 	 -6.642963 	 3.590485 	 3.476668 
H 	 -5.061955 	 3.837508 	 2.943570 
H 	 -3.175216 	 -5.255189 	 -2.629637 
H 	 -3.559006 	 -4.675204 	 -1.253877 
H 	 -5.130907 	 1.926104 	 3.082097 
H 	 -3.869280 	 1.010413 	 3.361875 
H 	 2.850611 	 -2.748647 	 -5.348415 
H 	 2.809232 	 -1.466593 	 -6.187166 
H 	 -2.508965 	 3.797076 	 3.362716 
H 	 -3.392714 	 5.066799 	 2.647606 
H 	 2.008877 	 1.719415 	 2.502295 
H 	 2.082663 	 2.358547 	 3.978979 
H 	 6.337951 	 3.486538 	 5.172095 
H 	 -7.240969 	 4.502457 	 5.423877 
H 	 0.919933 	 -2.730857 	 -1.572158 
H 	 -0.045227 	 -1.568533 	 -1.175468 
H 	 6.023073 	 -1.750035 	 3.078508 
H 	 -7.309944 	 -1.855775 	 3.334682 
H 	 3.140136 	 -4.579710 	 1.791472 
H 	 1.966337 	 -5.764515 	 1.633992 
H 	 -4.697698 	 6.898255 	 -0.609560 
H 	 -5.569718 	 5.720643 	 -1.123804 
H 	 -2.173581 	 6.278247 	 -4.611743 
H 	 -3.559563 	 5.499359 	 -4.067277 
H 	 -0.129327 	 5.219957 	 -2.257497 
H 	 0.971092 	 5.504587 	 -3.333485 
H 	 -2.535296 	 -0.618941 	 -4.328341 
H 	 -2.349114 	 0.292897 	 -3.034384 
H 	 1.260040 	 3.011254 	 -2.603398 
H 	 1.219502 	 1.493761 	 -2.742892 
H 	 -7.232890 	 -6.344432 	 -4.742532 
H 	 6.289030 	 -5.714256 	 -5.388084 
H 	 -5.849412 	 -1.715661 	 7.107028 
H 	 -5.870664 	 -1.944348 	 -6.246054 
H 	 1.296461 	 -6.976585 	 5.405419 
H 	 1.139156 	 -6.471980 	 6.822699 
H 	 0.618026 	 -2.838530 	 2.737266 
H 	 -0.185689 	 -1.842003 	 1.891562 
H 	 -1.276357 	 0.629240 	 0.965971 
H 	 -2.038588 	 -0.270152 	 1.804875 
H 	 1.089877 	 -0.595488 	 -3.452155 
H 	 -0.347068 	 -0.252513 	 -3.930748 
H 	 7.097492 	 0.932950 	 -1.181642 
H 	 7.453154 	 0.969343 	 0.322894 
H 	 -7.158036 	 6.214771 	 -3.487953 
H 	 7.082457 	 6.992277 	 -2.253116 
H 	 3.963625 	 -2.279314 	 1.860079 
H 	 4.870699 	 -2.953083 	 0.808803 
H 	 7.052264 	 5.862852 	 4.178536 
H 	 6.586217 	 7.330201 	 4.233652 
H 	 5.911636 	 -3.931815 	 -1.948238 
H 	 5.285581 	 -4.714453 	 -3.067811 
H 	 -7.218854 	 3.285594 	 -0.584148 
H 	 -6.468956 	 3.683312 	 0.824421 
H 	 -5.593176 	 -6.715745 	 7.268941 
H 	 -6.932739 	 -6.229143 	 -7.239169 
H 	 4.249292 	 -6.821780 	 -5.371179 
H 	 3.510981 	 -5.405667 	 -5.626664 
H 	 -4.994336 	 7.477607 	 -3.562222 
H 	 -4.909056 	 -6.828103 	 -4.931974 
H 	 0.191920 	 -5.582775 	 -2.526009 
H 	 1.326316 	 -6.593755 	 -2.684946 
H 	 0.812486 	 5.339679 	 4.000336 
H 	 0.489895 	 5.515602 	 2.577586 
H 	 4.479908 	 4.044152 	 1.186919 
H 	 3.795067 	 2.829550 	 0.625067 
H 	 -0.461280 	 1.036426 	 -1.025989 
H 	 0.739512 	 0.369118 	 -0.150882 
H 	 4.225192 	 6.372002 	 4.824414 
H 	 4.882928 	 4.944320 	 5.094751 
H 	 -4.651809 	 1.608437 	 5.306617 
H 	 -4.317846 	 0.974168 	 6.801865 
H 	 6.927779 	 -2.454544 	 0.847405 
H 	 6.381419 	 -1.942226 	 -0.552866 
H 	 -0.014414 	 3.543129 	 2.230116 
H 	 -0.696485 	 3.841617 	 0.951864 
H 	 2.290156 	 -4.800292 	 -3.723298 
H 	 1.244016 	 -3.926028 	 -4.540721 
H 	 -5.919675 	 -0.224883 	 -0.088117 
H 	 -4.545366 	 -1.088261 	 -0.196252 
H 	 -3.466131 	 1.261535 	 0.717574 
H 	 -4.933823 	 1.528461 	 0.341792 
H 	 0.223649 	 6.924782 	 -4.981137 
H 	 -1.315237 	 6.692687 	 -6.462444 
H 	 -5.321197 	 3.930278 	 -5.599910 
H 	 -4.668290 	 5.101074 	 -6.449082 
H 	 -2.792221 	 -3.326586 	 7.438105 
H 	 -4.323263 	 -3.316555 	 7.406694 
H 	 2.945217 	 0.450903 	 0.058738 
H 	 2.403098 	 1.676279 	 -0.818213 
H 	 4.136531 	 5.628876 	 -4.488385 
H 	 5.305611 	 6.313705 	 -3.618480 
H 	 2.759853 	 2.633870 	 -4.955247 
H 	 1.639902 	 1.559643 	 -4.912977 
H 	 0.969497 	 7.388408 	 0.295145 
H 	 0.798150 	 -6.102683 	 -0.228963 
H 	 4.818394 	 0.007113 	 2.756740 
H 	 3.678936 	 -0.870771 	 3.425016 
H 	 -6.938564 	 -4.402500 	 -2.458293 
H 	 -5.569562 	 -5.221899 	 -2.209018 
H 	 2.886080 	 -1.909121 	 -2.492116 
H 	 3.312999 	 -0.884128 	 -3.567154 
H 	 2.431919 	 -4.242201 	 -1.578126 
H 	 3.032957 	 -3.277781 	 -0.448565 
H 	 1.449874 	 5.432250 	 -0.983568 
H 	 1.239849 	 5.121363 	 0.522881 
H 	 -0.921736 	 1.787633 	 6.799445 
H 	 -1.072841 	 0.416930 	 5.898723 
H 	 2.564215 	 4.274929 	 5.012217 
H 	 1.514981 	 3.602792 	 6.004245 
H 	 6.004499 	 -0.596839 	 -2.757725 
H 	 4.967940 	 -0.641579 	 -1.582694 
H 	 -2.377058 	 2.510810 	 -1.414435 
H 	 -1.899946 	 2.492599 	 -2.918132 
H 	 -2.793105 	 -2.054423 	 -2.125062 
H 	 -2.856372 	 -2.534198 	 -0.681023 
H 	 -1.840872 	 5.324132 	 6.418254 
H 	 -0.361129 	 4.974144 	 6.499091 
H 	 -0.156658 	 -1.467818 	 7.163297 
H 	 -0.584614 	 -2.794420 	 6.374218 
H 	 -5.325593 	 5.284990 	 6.418221 
H 	 -6.437757 	 6.399472 	 6.372956 
H 	 -6.483702 	 -0.933609 	 -2.041416 
H 	 -5.447977 	 -1.998323 	 -2.370195 
H 	 -1.684255 	 -6.389869 	 -4.339073 
H 	 -1.537420 	 -4.800174 	 -4.263922 
H 	 -3.522908 	 -0.841709 	 -6.441793 
H 	 -2.794148 	 0.592282 	 -6.417418 
H 	 6.061499 	 2.055057 	 1.725096 
H 	 7.402566 	 1.635737 	 2.259805 
H 	 -3.014905 	 6.817045 	 1.495274 
H 	 -4.522387 	 6.928201 	 1.970719 
H 	 2.549733 	 -4.527124 	 3.866171 
H 	 2.144495 	 -3.939786 	 5.201547 
H 	 -2.747540 	 -6.779237 	 5.074256 
H 	 -3.909380 	 -6.587775 	 6.029590 
H 	 -2.779474 	 -4.358722 	 5.020192 
H 	 -4.104184 	 -4.482967 	 4.486198 
H 	 3.853431 	 5.872748 	 -7.030310 
H 	 2.603909 	 6.575218 	 7.250875 
H 	 3.679165 	 -6.653489 	 -3.176256 
H 	 4.274813 	 -6.268035 	 -1.793293 
H 	 -6.639158 	 1.375660 	 6.991657 
H 	 -7.356384 	 0.747467 	 -6.595588 
H 	 -0.335183 	 -4.839664 	 6.669709 
H 	 -0.400869 	 -5.160282 	 5.242105 
H 	 -2.012010 	 4.375949 	 -4.163254 
H 	 -0.630010 	 3.770039 	 -4.128975 
H 	 7.029849 	 5.569809 	 0.072984 
H 	 5.915825 	 6.141149 	 1.120362 
H 	 -3.501095 	 4.593459 	 4.915323 
H 	 -3.899024 	 3.760581 	 6.149404 
H 	 -2.445236 	 -2.778043 	 1.741737 
H 	 -2.844608 	 -2.686181 	 3.189386 
H 	 -6.234851 	 -7.201666 	 3.394767 
H 	 -4.780380 	 -6.789610 	 3.754573 
H 	 6.626565 	 5.102907 	 -7.267778 
H 	 5.731984 	 3.900751 	 -7.293929 
H 	 2.124974 	 0.114973 	 4.274979 
H 	 1.790241 	 -1.539685 	 4.203645 
H 	 4.824983 	 3.550432 	 -3.848537 
H 	 5.156108 	 4.006488 	 -5.155167 
H 	 5.232180 	 0.882462 	 -5.412884 
H 	 5.488845 	 -0.616557 	 -5.080056 
H 	 6.138934 	 4.505637 	 -2.312109 
H 	 5.136680 	 3.696929 	 -1.535586 
H 	 0.982260 	 -5.271333 	 -6.008110 
H 	 -0.152407 	 -6.407799 	 -5.943136 
H 	 3.431013 	 1.968527 	 -6.719193 
H 	 4.650386 	 1.487328 	 7.317435 
H 	 4.188772 	 -6.146999 	 3.642652 
H 	 4.902306 	 -5.926002 	 5.038058 
H 	 -2.604320 	 -4.834139 	 0.986589 
H 	 -3.736627 	 -3.722762 	 0.756267 
H 	 -6.985902 	 2.352506 	 -4.455213 
H 	 -7.052738 	 2.779506 	 -5.852916 
H 	 4.875975 	 -5.501473 	 7.230230 
H 	 5.299016 	 -4.210675 	 6.774046 
H 	 1.984613 	 -0.449624 	 6.698676 
H 	 1.414757 	 0.327371 	 -6.954664 
H 	 5.142163 	 1.305646 	 5.043971 
H 	 4.167630 	 2.109459 	 4.086888 
H 	 1.747091 	 4.799503 	 -7.153732 
H 	 1.400332 	 3.386866 	 -6.587505 
H 	 -3.258645 	 3.296731 	 0.152046 
H 	 -2.489149 	 4.682508 	 -0.338304 
H 	 -1.417162 	 1.880755 	 2.902484 
H 	 -0.999616 	 2.129646 	 4.447513 
H 	 -1.807101 	 -5.990133 	 3.038361 
H 	 -1.053120 	 -6.275168 	 1.775675 
H 	 -2.269161 	 -1.350287 	 5.966454 
H 	 -2.721071 	 -0.982788 	 4.526455 
H 	 -0.919523 	 7.179420 	 5.359950 
H 	 -0.608369 	 7.356782 	 3.889030 
H 	 -3.495202 	 2.839504 	 -6.473596 
H 	 -2.276004 	 2.640451 	 -5.637091 
H 	 1.780722 	 7.266287 	 -5.178457 
H 	 -2.234354 	 6.236971 	 -2.085777 
H 	 -5.411220 	 -1.107220 	 4.714410 
H 	 -5.886886 	 -2.633251 	 4.839773 
H 	 5.382120 	 -1.320466 	 6.414761 
H 	 4.176039 	 -0.882554 	 5.415050 
H 	 3.444538 	 5.794923 	 2.437835 
H 	 3.150582 	 5.778828 	 0.861308 
H 	 -0.482562 	 -2.410449 	 -3.663179 
H 	 -0.506923 	 -2.194937 	 -5.108776 
H 	 -1.508742 	 7.000125 	 -0.848176 
O 	 -6.981715 	 -2.671337 	 -5.086607 
O 	 4.848847 	 -6.373899 	 -0.224745 
O 	 -5.214023 	 -3.519658 	 1.578973 
O 	 5.881508 	 -2.680368 	 -7.092241 
O 	 -6.100183 	 -4.383786 	 4.779737 
O 	 6.884578 	 -5.059589 	 2.753942 
O 	 -3.711744 	 -6.823084 	 -6.646255 
O 	 -6.003546 	 3.536751 	 2.718943 
O 	 -3.821665 	 -5.396856 	 -1.933245 
O 	 -4.781980 	 1.186195 	 3.615043 
O 	 3.454071 	 -2.018003 	 -5.654169 
O 	 -3.343494 	 4.329339 	 3.348077 
O 	 2.316819 	 1.564141 	 3.429193 
O 	 6.959680 	 4.158381 	 4.783944 
O 	 -0.040127 	 -2.443176 	 -1.583888 
O 	 6.824759 	 -2.344167 	 2.934454 
O 	 2.808945 	 -5.471799 	 2.139261 
O 	 -5.455821 	 6.686165 	 -1.171035 
O 	 -2.642946 	 5.750999 	 -3.758726 
O 	 0.768120 	 4.924921 	 -2.575087 
O 	 -2.199418 	 -0.610154 	 -3.381171 
O 	 1.805389 	 2.226801 	 -2.488968 
O 	 7.253142 	 -5.664721 	 -5.376344 
O 	 -5.308486 	 -1.551324 	 -7.000452 
O 	 1.833281 	 -6.861991 	 6.237016 
O 	 0.695566 	 -1.940033 	 2.327733 
O 	 -1.973302 	 0.681868 	 1.670914 
O 	 0.591602 	 -0.360012 	 -4.264197 
O 	 -7.019298 	 1.022585 	 -0.575794 
O 	 6.917667 	 6.350969 	 -2.950550 
O 	 3.963330 	 -3.057298 	 1.251190 
O 	 7.323629 	 6.779240 	 3.983962 
O 	 5.869240 	 -3.937177 	 -2.931746 
O 	 -6.721972 	 3.989920 	 -0.110512 
O 	 -6.459651 	 -6.428347 	 6.843997 
O 	 4.361996 	 -5.883636 	 -5.843978 
O 	 -5.546196 	 -7.125383 	 -4.266638 
O 	 1.102642 	 -5.759849 	 -2.193490 
O 	 0.707542 	 6.085552 	 3.310073 
O 	 4.680132 	 3.184630 	 0.758420 
O 	 -0.187528 	 0.251111 	 -0.474562 
O 	 4.010638 	 5.400168 	 4.816040 
O 	 -4.696285 	 1.758722 	 6.323312 
O 	 6.464542 	 -2.731155 	 0.023522 
O 	 0.226209 	 3.861546 	 1.352683 
O 	 2.076816 	 -4.463322 	 -4.673564 
O 	 -5.249929 	 -0.764200 	 0.411475 
O 	 -4.138866 	 1.959472 	 0.681016 
O 	 -1.371908 	 7.066407 	 -5.554527 
O 	 -4.501171 	 4.445216 	 -5.724840 
O 	 -3.561118 	 -3.915010 	 -7.370487 
O 	 2.532554 	 1.287059 	 0.089102 
O 	 4.617622 	 6.509760 	 -4.236991 
O 	 2.068586 	 2.182104 	 -5.504817 
O 	 0.609137 	 -6.631238 	 0.511528 
O 	 4.485193 	 -0.941175 	 2.866366 
O 	 -6.447747 	 -5.018839 	 -1.799402 
O 	 2.777187 	 -0.964699 	 -2.754926 
O 	 2.760969 	 -3.316718 	 -1.398917 
O 	 1.698612 	 5.754097 	 -0.048012 
O 	 -0.659112 	 1.304504 	 5.978678 
O 	 1.830544 	 3.596467 	 5.047870 
O 	 5.924496 	 -0.571616 	 -1.778502 
O 	 -1.819811 	 1.961031 	 -2.064251 
O 	 -3.357479 	 -2.038069 	 -1.307435 
O 	 -0.966277 	 5.738301 	 6.406876 
O 	 -0.888786 	 -1.873623 	 6.644692 
O 	 -6.319887 	 5.447692 	 6.511118 
O 	 -6.174396 	 -1.482868 	 -2.758015 
O 	 -1.692505 	 -5.618527 	 -3.753614 
O 	 -2.711196 	 -0.400339 	 -6.180317 
O 	 6.649481 	 1.276430 	 1.777922 
O 	 -3.865209 	 6.335308 	 1.434773 
O 	 2.533351 	 -3.681605 	 4.336480 
O 	 -3.737721 	 -6.713566 	 5.100415 
O 	 -3.244045 	 -4.113366 	 4.190730 
O 	 2.890518 	 6.073917 	 -6.864350 
O 	 3.972350 	 -5.921626 	 -2.638678 
O 	 7.495606 	 1.425930 	 -7.255595 
O 	 -0.283774 	 -4.402002 	 5.820463 
O 	 -1.530309 	 3.522378 	 -4.388156 
O 	 6.501398 	 6.343398 	 0.336308 
O 	 -3.606849 	 4.674193 	 5.952835 
O 	 -2.497420 	 -2.095573 	 2.454493 
O 	 -5.380605 	 -7.019374 	 2.933534 
O 	 5.748144 	 4.849117 	 -7.073687 
O 	 2.322462 	 -0.817198 	 4.637712 
O 	 4.315291 	 3.815733 	 -4.671348 
O 	 5.648675 	 0.277629 	 -4.780346 
O 	 5.773584 	 3.583074 	 -2.315980 
O 	 0.191583 	 -5.642234 	 -6.478959 
O 	 4.409277 	 2.071350 	 -6.851896 
O 	 4.858065 	 -6.503331 	 4.256033 
O 	 -2.926251 	 -4.188395 	 0.342964 
O 	 -6.726349 	 3.089496 	 -5.010336 
O 	 5.289448 	 -5.160752 	 6.434518 
O 	 1.640083 	 -0.519196 	 -7.306742 
O 	 5.067878 	 2.119129 	 4.474487 
O 	 1.133544 	 4.047022 	 -7.283155 
O 	 -2.405892 	 3.759033 	 0.046347 
O 	 -1.142665 	 2.570089 	 3.540208 
O 	 -1.951198 	 -6.223059 	 2.093568 
O 	 -3.100818 	 -0.995124 	 5.445393 
O 	 -0.888194 	 -7.018792 	 4.683049 
O 	 -2.711655 	 2.267856 	 -6.412966 
O 	 1.135540 	 6.980336 	 -4.494381 
O 	 -6.197768 	 -1.687694 	 4.809669 
O 	 5.041936 	 -0.582057 	 5.841968 
O 	 3.893626 	 5.808392 	 1.590704 
O 	 -0.335063 	 -2.953779 	 -4.501542 
O 	 -1.728287 	 6.112401 	 -1.245614 
K 	 -6.829549 	 -6.085688 	 0.438915 
