333
conformation = 76
H 	 -7.145495 	 -3.797013 	 -4.979111 
H 	 -6.793093 	 -2.539462 	 -4.171345 
H 	 4.191673 	 -6.476073 	 0.737149 
H 	 5.210303 	 7.523266 	 -0.143252 
H 	 -5.633741 	 -3.720302 	 2.274465 
H 	 -5.512400 	 -2.624083 	 1.227217 
H 	 4.737296 	 -2.835650 	 -6.832385 
H 	 6.202271 	 -2.834536 	 -6.404114 
H 	 -6.341247 	 -5.176879 	 5.577718 
H 	 -6.965371 	 -4.658272 	 4.239835 
H 	 6.109980 	 -5.551064 	 3.358958 
H 	 6.507390 	 -4.186175 	 2.881372 
H 	 -2.969020 	 -7.256148 	 -6.307735 
H 	 -3.881025 	 -6.041879 	 -6.590898 
H 	 -6.750237 	 3.888374 	 3.311786 
H 	 -5.215999 	 3.725907 	 2.807859 
H 	 -3.277578 	 -5.772024 	 -2.624483 
H 	 -3.449456 	 -5.444212 	 -1.103644 
H 	 -5.554536 	 1.774280 	 3.273278 
H 	 -4.154499 	 1.056972 	 2.977261 
H 	 2.963891 	 -3.168132 	 -5.380544 
H 	 2.646256 	 -1.949126 	 -6.205464 
H 	 -2.696705 	 3.582445 	 3.211322 
H 	 -3.519630 	 4.886185 	 2.536235 
H 	 1.900714 	 1.496957 	 2.551791 
H 	 1.840323 	 2.165044 	 3.967620 
H 	 6.498219 	 3.262728 	 4.564237 
H 	 7.307032 	 4.297803 	 5.636422 
H 	 0.603208 	 -2.750577 	 -1.381474 
H 	 -0.277275 	 -1.538316 	 -1.502016 
H 	 5.852315 	 -2.026801 	 3.226429 
H 	 7.364970 	 -2.204096 	 3.669485 
H 	 3.227130 	 -4.899380 	 1.830077 
H 	 1.944820 	 -5.843727 	 1.654089 
H 	 -4.650750 	 6.893652 	 -0.798903 
H 	 -5.681684 	 5.737930 	 -0.790283 
H 	 -2.258625 	 6.120220 	 -4.345198 
H 	 -3.625015 	 5.540903 	 -4.052348 
H 	 -0.022643 	 5.217034 	 -2.164138 
H 	 1.144517 	 5.448412 	 -3.118474 
H 	 -2.703047 	 -0.758809 	 -4.218279 
H 	 -2.776667 	 -0.008686 	 -2.801598 
H 	 1.438075 	 3.017740 	 -2.230635 
H 	 0.993467 	 1.686696 	 -2.768746 
H 	 -7.226769 	 -6.349657 	 -4.774177 
H 	 6.252278 	 -5.769736 	 -5.235053 
H 	 -5.859059 	 -1.200780 	 7.371723 
H 	 -6.080648 	 -2.124979 	 -6.255448 
H 	 1.053095 	 7.395768 	 5.790854 
H 	 1.435190 	 -6.653515 	 6.895065 
H 	 0.666606 	 -2.893514 	 2.971626 
H 	 -0.442056 	 -1.967071 	 2.483314 
H 	 -1.423164 	 0.161558 	 0.977479 
H 	 -2.260797 	 -0.353858 	 2.104787 
H 	 1.109946 	 -0.962398 	 -3.793910 
H 	 -0.378605 	 -0.535222 	 -3.608231 
H 	 6.942515 	 0.339333 	 -0.994202 
H 	 -7.471600 	 0.878874 	 0.348457 
H 	 -7.304601 	 6.194303 	 -3.665930 
H 	 7.169643 	 6.675182 	 -2.244190 
H 	 3.944131 	 -2.457634 	 1.754642 
H 	 4.874950 	 -3.123352 	 0.805727 
H 	 6.798900 	 5.843849 	 4.312099 
H 	 6.375247 	 7.356093 	 4.134735 
H 	 5.761869 	 -3.857754 	 -1.952638 
H 	 4.940017 	 -4.838022 	 -2.836907 
H 	 -7.177684 	 3.038786 	 -0.565077 
H 	 -6.545574 	 3.697924 	 0.792421 
H 	 -5.574938 	 -6.687611 	 7.361292 
H 	 -6.944835 	 -6.121341 	 -7.236761 
H 	 4.136826 	 -6.925609 	 -5.366663 
H 	 3.690401 	 -5.428691 	 -5.273884 
H 	 -5.093404 	 -7.158211 	 -3.397271 
H 	 -4.993743 	 7.422052 	 -4.968420 
H 	 0.160889 	 -5.413053 	 -2.498839 
H 	 1.012123 	 -6.533347 	 -2.926417 
H 	 1.077493 	 5.154436 	 3.723265 
H 	 0.245296 	 5.584632 	 2.486864 
H 	 4.025322 	 3.517953 	 1.399003 
H 	 3.897092 	 2.153517 	 0.686970 
H 	 -0.658312 	 0.528434 	 -0.968125 
H 	 0.697352 	 0.594198 	 -0.163157 
H 	 4.070621 	 6.089166 	 4.659757 
H 	 4.891762 	 4.827477 	 4.774105 
H 	 -4.911399 	 1.020653 	 5.467567 
H 	 -4.040467 	 1.111390 	 6.789379 
H 	 6.729789 	 -2.660065 	 1.095998 
H 	 6.669491 	 -1.977267 	 -0.309115 
H 	 -0.375440 	 3.301601 	 2.121004 
H 	 -0.870494 	 3.706177 	 0.758047 
H 	 2.120483 	 -5.138080 	 -3.945709 
H 	 1.228725 	 -3.941132 	 -4.437789 
H 	 -5.857994 	 -0.611846 	 -0.184773 
H 	 -4.412519 	 -1.246482 	 0.245601 
H 	 -3.748877 	 1.076106 	 1.007842 
H 	 -4.979026 	 1.570764 	 0.201392 
H 	 0.131967 	 6.871272 	 -4.919213 
H 	 -1.317942 	 6.203640 	 -6.082583 
H 	 -5.443558 	 4.370063 	 -5.201319 
H 	 -4.574646 	 4.932434 	 -6.411359 
H 	 -2.797789 	 -3.638609 	 -7.176265 
H 	 -4.283252 	 -3.179362 	 -7.199367 
H 	 3.074774 	 0.356560 	 0.280628 
H 	 2.290213 	 1.274070 	 -0.895954 
H 	 4.253500 	 5.400724 	 -4.347347 
H 	 5.285002 	 6.547543 	 -4.213150 
H 	 2.625650 	 2.486770 	 -4.735290 
H 	 1.739529 	 1.157082 	 -5.007793 
H 	 1.013622 	 7.227323 	 0.577047 
H 	 0.468059 	 -6.502762 	 -0.311338 
H 	 4.670306 	 -0.224744 	 2.524151 
H 	 3.805750 	 -0.898290 	 3.641659 
H 	 -7.227101 	 -4.853604 	 -2.510494 
H 	 -5.743556 	 -4.857772 	 -2.064702 
H 	 2.605408 	 -1.914130 	 -2.136852 
H 	 3.097972 	 -1.443182 	 -3.499826 
H 	 3.173060 	 -4.068171 	 -1.825613 
H 	 3.062483 	 -3.320139 	 -0.424455 
H 	 1.623848 	 5.375328 	 -0.926144 
H 	 1.163696 	 4.905661 	 0.476834 
H 	 -1.143743 	 1.900414 	 6.764654 
H 	 -1.328334 	 0.520329 	 5.907114 
H 	 2.614638 	 3.877967 	 5.104526 
H 	 1.426280 	 3.474623 	 6.007560 
H 	 5.797139 	 -0.392507 	 -2.602777 
H 	 4.751584 	 -0.742848 	 -1.448470 
H 	 -2.020778 	 2.615603 	 -1.259778 
H 	 -1.778282 	 2.484825 	 -2.785835 
H 	 -2.991903 	 -1.741119 	 -1.778834 
H 	 -2.930294 	 -3.112043 	 -1.098465 
H 	 -1.937704 	 5.116946 	 6.450458 
H 	 -0.497157 	 4.950268 	 7.086184 
H 	 -0.419791 	 -1.572079 	 7.319055 
H 	 -0.474625 	 -2.879047 	 6.374340 
H 	 -5.610661 	 5.203960 	 6.205914 
H 	 -6.658706 	 6.440245 	 6.381928 
H 	 -6.774568 	 -1.166123 	 -1.962582 
H 	 -5.349251 	 -1.826953 	 -2.188457 
H 	 -1.408333 	 -6.472135 	 -4.400904 
H 	 -1.467733 	 -4.840628 	 -4.169230 
H 	 -3.651212 	 -0.919016 	 -6.426049 
H 	 -2.772251 	 0.383445 	 -6.084598 
H 	 5.998058 	 1.963431 	 1.582614 
H 	 6.853437 	 1.429377 	 2.694613 
H 	 -3.037975 	 6.822304 	 1.586930 
H 	 -4.481602 	 6.703945 	 2.057542 
H 	 2.335294 	 -4.409824 	 3.645286 
H 	 1.653243 	 -4.195382 	 5.036699 
H 	 -2.970323 	 -6.957873 	 4.755150 
H 	 -3.572818 	 -6.927401 	 6.176752 
H 	 -3.010813 	 -3.776517 	 5.010263 
H 	 -4.269775 	 -4.391598 	 4.543806 
H 	 3.702730 	 5.668610 	 -7.008521 
H 	 2.673352 	 6.643644 	 7.274418 
H 	 4.201593 	 -6.862032 	 -2.951302 
H 	 3.923231 	 -6.107936 	 -1.697334 
H 	 -6.650804 	 1.248619 	 7.439002 
H 	 6.943740 	 0.456390 	 -6.785153 
H 	 -0.235758 	 -5.201385 	 6.531637 
H 	 -0.783469 	 -5.083249 	 5.134038 
H 	 -1.947542 	 4.226647 	 -4.127438 
H 	 -0.527420 	 3.665288 	 -4.157757 
H 	 7.073956 	 5.293126 	 0.090222 
H 	 5.675433 	 5.756725 	 0.676726 
H 	 -3.665981 	 4.627174 	 4.964739 
H 	 -3.753508 	 3.536480 	 6.002057 
H 	 -2.543805 	 -2.471496 	 1.504511 
H 	 -3.038354 	 -3.064049 	 2.851757 
H 	 -5.944458 	 7.176044 	 3.506206 
H 	 -4.950463 	 -6.585489 	 3.680811 
H 	 6.559863 	 4.890052 	 7.346396 
H 	 5.356574 	 3.921443 	 -7.346580 
H 	 2.135831 	 0.021734 	 4.291392 
H 	 1.902816 	 -1.617166 	 4.430540 
H 	 4.877313 	 3.512650 	 -3.672476 
H 	 4.977995 	 3.454653 	 -5.139462 
H 	 5.181829 	 1.181130 	 -5.077926 
H 	 5.281269 	 -0.344694 	 -5.528953 
H 	 5.881296 	 4.359716 	 -2.208310 
H 	 5.256753 	 3.335976 	 -1.350255 
H 	 0.627652 	 -5.666690 	 -5.694327 
H 	 -0.544663 	 -6.560924 	 -6.334874 
H 	 3.391430 	 2.165946 	 -6.457027 
H 	 4.354307 	 1.233538 	 -7.312345 
H 	 3.978239 	 -6.517805 	 3.881039 
H 	 4.846545 	 -6.021029 	 5.089859 
H 	 -2.391585 	 -5.088233 	 0.890667 
H 	 -3.862129 	 -4.367965 	 0.656397 
H 	 -7.155969 	 2.470986 	 -4.101172 
H 	 -7.048092 	 2.279607 	 -5.606889 
H 	 4.774986 	 -5.754077 	 7.273254 
H 	 5.510207 	 -4.489515 	 6.990281 
H 	 1.403843 	 -0.822586 	 6.554495 
H 	 1.492870 	 0.337629 	 -7.328008 
H 	 5.165985 	 1.106153 	 4.928823 
H 	 4.175120 	 1.987337 	 4.109816 
H 	 1.740497 	 4.476833 	 -7.051788 
H 	 1.018053 	 3.123522 	 -6.580319 
H 	 -3.221625 	 3.131059 	 0.566840 
H 	 -2.754948 	 4.488139 	 -0.137358 
H 	 -1.393163 	 1.605542 	 3.170244 
H 	 -0.865958 	 2.261300 	 4.504568 
H 	 -2.027798 	 -5.772208 	 2.946600 
H 	 -1.121739 	 -6.438165 	 1.985561 
H 	 -2.366114 	 -1.559815 	 6.071712 
H 	 -2.982424 	 -1.161926 	 4.706830 
H 	 -1.020988 	 7.036632 	 5.589464 
H 	 -0.453307 	 7.135586 	 4.168682 
H 	 -3.429019 	 2.646812 	 -6.256492 
H 	 -2.019701 	 2.448693 	 -5.890462 
H 	 1.641741 	 6.377498 	 -5.231190 
H 	 -2.351549 	 5.868803 	 -1.979574 
H 	 -5.321328 	 -1.433377 	 4.794432 
H 	 -6.123893 	 -2.754398 	 5.106557 
H 	 5.377648 	 -1.591052 	 6.316642 
H 	 3.976834 	 -0.955047 	 5.819535 
H 	 3.161627 	 5.989047 	 2.331505 
H 	 3.245389 	 5.697546 	 0.822112 
H 	 -0.354317 	 -2.863807 	 -3.557068 
H 	 -0.170568 	 -2.204968 	 -4.789912 
H 	 -2.098170 	 6.974267 	 -0.932982 
O 	 -7.092256 	 -2.810731 	 -5.091935 
O 	 4.834980 	 -6.479432 	 -0.042176 
O 	 -5.279862 	 -3.597393 	 1.400436 
O 	 5.640405 	 -2.839095 	 -7.185211 
O 	 -6.226163 	 -4.493658 	 4.857265 
O 	 6.771951 	 -5.154709 	 2.794863 
O 	 -3.914079 	 -7.025874 	 -6.544474 
O 	 -6.120933 	 3.331585 	 2.773526 
O 	 -3.946227 	 -5.572179 	 -1.922772 
O 	 -4.899823 	 1.098502 	 3.596116 
O 	 3.323793 	 -2.268944 	 -5.583058 
O 	 -3.452098 	 4.202551 	 3.309070 
O 	 2.311523 	 1.486879 	 3.409820 
O 	 6.898884 	 4.166884 	 4.731568 
O 	 -0.256094 	 -2.487272 	 -1.749475 
O 	 6.706044 	 -2.373810 	 2.952629 
O 	 2.756779 	 -5.672315 	 2.236926 
O 	 -5.476911 	 6.593303 	 -1.197195 
O 	 -2.794759 	 5.640615 	 -3.623806 
O 	 0.809514 	 4.810514 	 -2.493966 
O 	 -2.381563 	 -0.818600 	 -3.252109 
O 	 1.701489 	 2.085445 	 -2.281299 
O 	 7.237676 	 -5.759844 	 -5.338631 
O 	 -5.388611 	 -1.760247 	 -6.882261 
O 	 1.834038 	 -7.037098 	 6.112474 
O 	 0.511787 	 -2.130268 	 2.342225 
O 	 -2.028099 	 0.532388 	 1.687261 
O 	 0.398567 	 -0.404614 	 -4.216130 
O 	 -7.197116 	 0.818973 	 -0.580146 
O 	 6.850570 	 6.244739 	 -3.056973 
O 	 3.934927 	 -3.231869 	 1.202270 
O 	 7.163420 	 6.699574 	 4.050473 
O 	 5.624870 	 -4.129919 	 -2.882228 
O 	 -6.913478 	 3.878105 	 -0.142788 
O 	 -6.401834 	 -6.484839 	 6.884299 
O 	 4.289878 	 -6.014858 	 -5.780976 
O 	 -5.636819 	 -7.280068 	 -4.243776 
O 	 1.032253 	 -5.793989 	 -2.302647 
O 	 0.553608 	 5.948712 	 3.369310 
O 	 4.509699 	 2.911503 	 0.778751 
O 	 -0.131405 	 0.058656 	 -0.321954 
O 	 3.979729 	 5.160819 	 4.852494 
O 	 -4.840325 	 1.450236 	 6.389638 
O 	 6.416619 	 -2.774750 	 0.175736 
O 	 -0.082502 	 3.802108 	 1.311541 
O 	 1.966772 	 -4.560950 	 -4.721624 
O 	 -5.324941 	 -0.920920 	 0.593462 
O 	 -4.249796 	 1.902871 	 0.746673 
O 	 -1.515618 	 6.954248 	 -5.505608 
O 	 -4.526492 	 4.350417 	 -5.649191 
O 	 -3.685630 	 -3.960140 	 7.471437 
O 	 2.477191 	 1.140154 	 0.078491 
O 	 4.304781 	 6.419852 	 -4.229917 
O 	 2.010533 	 2.039424 	 -5.425884 
O 	 0.574631 	 -6.797144 	 0.656045 
O 	 4.436756 	 -1.087891 	 2.837972 
O 	 -6.663868 	 -5.018783 	 -1.764598 
O 	 2.640735 	 -1.073876 	 -2.689088 
O 	 2.603702 	 -3.456608 	 -1.329683 
O 	 1.678368 	 5.654077 	 0.026446 
O 	 -0.736221 	 1.260556 	 6.147138 
O 	 1.709560 	 3.563413 	 5.037725 
O 	 5.700384 	 -0.751234 	 -1.712227 
O 	 -1.931063 	 1.906893 	 -1.995418 
O 	 -3.448524 	 -2.262460 	 -1.096447 
O 	 -1.050519 	 5.545009 	 6.510646 
O 	 -0.958029 	 -2.083438 	 6.678376 
O 	 -6.444201 	 5.516142 	 6.674161 
O 	 -6.202394 	 -1.634888 	 -2.630312 
O 	 -1.614617 	 -5.737769 	 -3.765746 
O 	 -2.767880 	 -0.603776 	 -6.148635 
O 	 6.459140 	 1.144499 	 1.805707 
O 	 -3.790029 	 6.171181 	 1.509907 
O 	 2.281448 	 -3.737304 	 4.409381 
O 	 -3.845326 	 -6.835417 	 5.219724 
O 	 -3.346872 	 -4.278865 	 4.244857 
O 	 2.796818 	 5.910969 	 -6.955954 
O 	 3.799465 	 -6.036331 	 -2.639394 
O 	 7.294654 	 1.323751 	 -7.184138 
O 	 -0.455821 	 -4.509738 	 5.863516 
O 	 -1.457541 	 3.388589 	 -4.299743 
O 	 6.456859 	 6.069547 	 0.188559 
O 	 -3.841202 	 4.502944 	 5.953271 
O 	 -2.541891 	 -2.270620 	 2.501931 
O 	 -5.433486 	 -7.086465 	 2.943523 
O 	 5.723948 	 4.760213 	 -6.992857 
O 	 2.282321 	 -0.810222 	 4.829874 
O 	 4.280361 	 3.678305 	 -4.470830 
O 	 5.449977 	 0.281129 	 -4.785370 
O 	 5.576275 	 3.415294 	 -2.247100 
O 	 0.130594 	 -5.854112 	 -6.551269 
O 	 4.309007 	 2.084455 	 -6.829207 
O 	 4.824689 	 -6.640939 	 4.343882 
O 	 -2.852837 	 -4.390472 	 0.370740 
O 	 -6.883587 	 2.923527 	 -4.921746 
O 	 5.106079 	 -5.229859 	 6.490534 
O 	 1.417642 	 -0.658168 	 -7.383792 
O 	 5.024629 	 2.006052 	 4.608083 
O 	 1.042262 	 3.809974 	 -7.258800 
O 	 -2.504758 	 3.610703 	 0.059582 
O 	 -1.144097 	 2.440213 	 3.567966 
O 	 -2.066940 	 -6.328511 	 2.161897 
O 	 -3.215821 	 -1.110656 	 5.635266 
O 	 -1.025712 	 -7.263609 	 4.810495 
O 	 -2.696586 	 2.067650 	 -6.467190 
O 	 1.107566 	 6.891893 	 -4.588138 
O 	 -6.230000 	 -1.796733 	 4.861645 
O 	 4.924862 	 -0.775130 	 6.017901 
O 	 3.784321 	 5.682572 	 1.644858 
O 	 -0.399887 	 -3.132555 	 -4.496292 
O 	 -1.921032 	 6.054100 	 -1.103436 
K 	 -6.958744 	 -6.240602 	 0.522717 
