333
conformation = 71
H 	 -7.218742 	 -3.791466 	 -5.055375 
H 	 -6.881091 	 -2.494840 	 -4.187896 
H 	 4.162320 	 -6.549715 	 0.687968 
H 	 5.190151 	 7.501220 	 -0.148955 
H 	 -5.656713 	 -3.762752 	 2.334882 
H 	 -5.524390 	 -2.648851 	 1.261067 
H 	 4.714545 	 -2.814548 	 -6.778560 
H 	 6.196702 	 -2.901933 	 -6.363524 
H 	 -6.399902 	 -5.142167 	 5.606659 
H 	 -7.005169 	 -4.684146 	 4.200254 
H 	 6.023286 	 -5.540715 	 3.352350 
H 	 6.476549 	 -4.209138 	 2.906700 
H 	 -2.963754 	 -7.261791 	 -6.308529 
H 	 -3.935482 	 -6.031031 	 -6.627862 
H 	 -6.760109 	 3.876677 	 3.343254 
H 	 -5.229473 	 3.706623 	 2.864398 
H 	 -3.290274 	 -5.751751 	 -2.549836 
H 	 -3.447312 	 -5.435424 	 -1.069254 
H 	 -5.523410 	 1.800920 	 3.236518 
H 	 -4.177845 	 1.033395 	 3.042100 
H 	 2.889409 	 -3.166791 	 -5.393588 
H 	 2.612858 	 -1.908636 	 -6.240020 
H 	 -2.721983 	 3.607246 	 3.169500 
H 	 -3.554616 	 4.869123 	 2.588579 
H 	 1.873403 	 1.492590 	 2.524998 
H 	 1.758129 	 2.162124 	 3.991690 
H 	 6.435712 	 3.251783 	 4.630749 
H 	 7.279871 	 4.321714 	 5.618078 
H 	 0.618253 	 -2.771253 	 -1.394078 
H 	 -0.330410 	 -1.550219 	 -1.526283 
H 	 5.788743 	 -2.047650 	 3.298693 
H 	 7.345133 	 -2.193438 	 3.655485 
H 	 3.236552 	 -4.907823 	 1.830987 
H 	 1.857846 	 -5.852209 	 1.697108 
H 	 -4.725392 	 6.915245 	 -0.787501 
H 	 -5.730494 	 5.706406 	 -0.847108 
H 	 -2.283311 	 6.120579 	 -4.332896 
H 	 -3.703755 	 5.579586 	 -4.075919 
H 	 -0.086018 	 5.236157 	 -2.167143 
H 	 1.116290 	 5.469351 	 -3.146958 
H 	 -2.723524 	 -0.762101 	 -4.205073 
H 	 -2.823868 	 -0.083652 	 -2.753351 
H 	 1.375210 	 3.012648 	 -2.291415 
H 	 0.949281 	 1.658944 	 -2.765777 
H 	 -7.246323 	 -6.448502 	 -4.760157 
H 	 6.211276 	 -5.750266 	 -5.261113 
H 	 -5.927966 	 -1.239118 	 7.368903 
H 	 -6.141561 	 -2.106051 	 -6.236342 
H 	 1.008392 	 7.384043 	 5.724915 
H 	 1.339955 	 -6.645398 	 6.927926 
H 	 0.547376 	 -2.915644 	 2.968121 
H 	 -0.492420 	 -1.964508 	 2.414601 
H 	 -1.451778 	 0.204892 	 1.009100 
H 	 -2.297149 	 -0.314885 	 2.071877 
H 	 1.035553 	 -0.964179 	 -3.772227 
H 	 -0.395797 	 -0.585724 	 -3.607611 
H 	 6.891821 	 0.384747 	 -1.031635 
H 	 -7.544143 	 0.885025 	 0.400677 
H 	 -7.326783 	 6.144175 	 -3.651998 
H 	 7.088330 	 6.697211 	 -2.246353 
H 	 3.851796 	 -2.423479 	 1.802416 
H 	 4.804811 	 -3.163035 	 0.823373 
H 	 6.785087 	 5.836997 	 4.343238 
H 	 6.404677 	 7.327579 	 4.165743 
H 	 5.721540 	 -3.938946 	 -1.924309 
H 	 4.895377 	 -4.823877 	 -2.837312 
H 	 -7.259514 	 3.034285 	 -0.547924 
H 	 -6.601603 	 3.650341 	 0.799573 
H 	 -5.601986 	 -6.718033 	 7.356169 
H 	 -6.960244 	 -6.111609 	 -7.291207 
H 	 4.156292 	 -6.936530 	 -5.290106 
H 	 3.603381 	 -5.424586 	 -5.273497 
H 	 -5.120834 	 -7.253696 	 -3.460318 
H 	 -5.062380 	 7.452961 	 -4.964920 
H 	 0.106439 	 -5.417735 	 -2.443686 
H 	 1.010596 	 -6.573700 	 -2.900869 
H 	 1.071464 	 5.187766 	 3.730452 
H 	 0.251826 	 5.641789 	 2.508415 
H 	 3.987688 	 3.484291 	 1.419074 
H 	 3.876332 	 2.172852 	 0.724387 
H 	 -0.703571 	 0.545888 	 -1.030936 
H 	 0.634838 	 0.573945 	 -0.118200 
H 	 4.020448 	 6.128817 	 4.653435 
H 	 4.883393 	 4.793912 	 4.819134 
H 	 -5.003052 	 1.032857 	 5.493888 
H 	 -4.112682 	 1.095838 	 6.872522 
H 	 6.704173 	 -2.652996 	 1.073373 
H 	 6.624492 	 -1.964517 	 -0.287622 
H 	 -0.398889 	 3.308738 	 2.096960 
H 	 -0.906713 	 3.683988 	 0.715132 
H 	 2.069026 	 -5.175548 	 -3.905021 
H 	 1.184085 	 -3.994594 	 -4.355564 
H 	 -5.889361 	 -0.622519 	 -0.204873 
H 	 -4.501194 	 -1.234161 	 0.284019 
H 	 -3.782308 	 1.121625 	 1.033291 
H 	 -5.028549 	 1.620688 	 0.217531 
H 	 0.099019 	 6.843470 	 -4.922937 
H 	 -1.376583 	 6.238608 	 -6.151311 
H 	 -5.453937 	 4.395253 	 -5.231074 
H 	 -4.631011 	 4.973798 	 -6.403766 
H 	 -2.847094 	 -3.606469 	 -7.217160 
H 	 -4.337799 	 -3.210027 	 -7.260635 
H 	 3.036065 	 0.454560 	 0.260988 
H 	 2.325001 	 1.257260 	 -0.916864 
H 	 4.197143 	 5.368831 	 -4.348377 
H 	 5.215398 	 6.562440 	 -4.137319 
H 	 2.581029 	 2.444853 	 -4.795474 
H 	 1.721949 	 1.223187 	 -5.001182 
H 	 1.010313 	 7.272867 	 0.541749 
H 	 0.453395 	 -6.523553 	 -0.245687 
H 	 4.570393 	 -0.184613 	 2.500478 
H 	 3.775843 	 -0.944000 	 3.590216 
H 	 -7.276213 	 -4.791809 	 -2.556999 
H 	 -5.777524 	 -4.904702 	 -2.099101 
H 	 2.627144 	 -1.894968 	 -2.150473 
H 	 3.041178 	 -1.411819 	 -3.502095 
H 	 3.090617 	 -4.175365 	 -1.775564 
H 	 2.995629 	 -3.333435 	 -0.464730 
H 	 1.544999 	 5.334858 	 -0.942012 
H 	 1.143090 	 4.963263 	 0.500923 
H 	 -1.192911 	 1.875380 	 6.779552 
H 	 -1.391549 	 0.512329 	 5.902170 
H 	 2.598587 	 3.905242 	 5.059176 
H 	 1.379734 	 3.429235 	 5.977748 
H 	 5.747451 	 -0.357207 	 -2.600668 
H 	 4.721653 	 -0.692353 	 -1.457052 
H 	 -2.111426 	 2.590761 	 -1.258133 
H 	 -1.891335 	 2.503361 	 -2.798293 
H 	 -3.026971 	 -1.745862 	 -1.823092 
H 	 -2.996479 	 -3.054023 	 -0.995632 
H 	 -1.984496 	 5.188561 	 6.455085 
H 	 -0.541651 	 4.936616 	 7.039906 
H 	 -0.423251 	 -1.589438 	 7.293744 
H 	 -0.503398 	 -2.893331 	 6.398355 
H 	 -5.647018 	 5.240550 	 6.182882 
H 	 -6.646551 	 6.401954 	 6.368811 
H 	 -6.789527 	 -1.147192 	 -1.978433 
H 	 -5.401991 	 -1.848660 	 -2.241866 
H 	 -1.441009 	 -6.461856 	 -4.352858 
H 	 -1.533718 	 -4.860640 	 -4.167561 
H 	 -3.695365 	 -0.864975 	 -6.432287 
H 	 -2.863653 	 0.415601 	 -6.065702 
H 	 5.930048 	 1.950133 	 1.537973 
H 	 6.891359 	 1.410473 	 2.646478 
H 	 -3.069945 	 6.775314 	 1.577283 
H 	 -4.522550 	 6.667949 	 2.074097 
H 	 2.263126 	 -4.428207 	 3.714484 
H 	 1.642666 	 -4.185292 	 5.059556 
H 	 -2.995173 	 -6.952894 	 4.800541 
H 	 -3.644585 	 -6.899004 	 6.136860 
H 	 -3.021467 	 -3.850794 	 5.050331 
H 	 -4.317426 	 -4.313831 	 4.562047 
H 	 3.703414 	 5.671472 	 -7.031817 
H 	 2.607115 	 6.613885 	 7.294305 
H 	 4.119329 	 -6.857602 	 -2.971495 
H 	 3.878114 	 -6.171214 	 -1.659982 
H 	 -6.691650 	 1.306671 	 7.428275 
H 	 6.917515 	 0.515841 	 -6.755284 
H 	 -0.297246 	 -5.169616 	 6.514991 
H 	 -0.803229 	 -5.035283 	 5.133326 
H 	 -2.018425 	 4.230938 	 -4.115444 
H 	 -0.598117 	 3.651652 	 -4.145273 
H 	 7.018159 	 5.326901 	 0.144746 
H 	 5.600016 	 5.768959 	 0.704806 
H 	 -3.676705 	 4.641362 	 4.948140 
H 	 -3.765761 	 3.543112 	 5.985690 
H 	 -2.559430 	 -2.489875 	 1.539304 
H 	 -3.137562 	 -3.038364 	 2.820962 
H 	 -5.986593 	 7.224515 	 3.555418 
H 	 -4.952107 	 -6.607286 	 3.682028 
H 	 6.443701 	 4.897523 	 7.375011 
H 	 5.329377 	 3.900404 	 -7.310724 
H 	 2.071368 	 0.044120 	 4.286754 
H 	 1.785798 	 -1.626566 	 4.421575 
H 	 4.789568 	 3.458642 	 -3.664617 
H 	 4.955132 	 3.528819 	 -5.150855 
H 	 5.161954 	 1.129868 	 -5.101084 
H 	 5.283637 	 -0.368516 	 -5.492500 
H 	 5.841515 	 4.369480 	 -2.212311 
H 	 5.139638 	 3.335594 	 -1.340922 
H 	 0.589017 	 -5.623804 	 -5.699335 
H 	 -0.535445 	 -6.594904 	 -6.310150 
H 	 3.325522 	 2.131740 	 -6.498781 
H 	 4.271845 	 1.224692 	 -7.265917 
H 	 3.946314 	 -6.499097 	 3.846084 
H 	 4.825720 	 -5.992515 	 5.081638 
H 	 -2.502101 	 -5.055959 	 0.915997 
H 	 -3.839937 	 -4.323880 	 0.617879 
H 	 -7.194647 	 2.425395 	 -4.166058 
H 	 -7.073275 	 2.299702 	 -5.633756 
H 	 4.762515 	 -5.752972 	 7.229565 
H 	 5.451153 	 -4.479631 	 7.039366 
H 	 1.339379 	 -0.836566 	 6.590703 
H 	 1.458987 	 0.296954 	 -7.276850 
H 	 5.105604 	 1.094136 	 4.951979 
H 	 4.114162 	 2.011739 	 4.104601 
H 	 1.681291 	 4.486847 	 -7.024349 
H 	 1.024722 	 3.116626 	 -6.572790 
H 	 -3.278048 	 3.201952 	 0.561316 
H 	 -2.834787 	 4.515893 	 -0.191765 
H 	 -1.475952 	 1.609812 	 3.137156 
H 	 -0.962619 	 2.249023 	 4.538425 
H 	 -2.080873 	 -5.769877 	 2.969408 
H 	 -1.196906 	 -6.467226 	 1.912578 
H 	 -2.424100 	 -1.554106 	 6.031018 
H 	 -2.997496 	 -1.126342 	 4.684722 
H 	 -1.084151 	 7.026790 	 5.535811 
H 	 -0.517492 	 7.132280 	 4.160181 
H 	 -3.505807 	 2.642906 	 -6.238695 
H 	 -2.108816 	 2.419614 	 -5.824310 
H 	 1.588399 	 6.451487 	 -5.295421 
H 	 -2.372803 	 5.911998 	 -2.015297 
H 	 -5.380584 	 -1.398017 	 4.808253 
H 	 -6.111071 	 -2.778863 	 5.033264 
H 	 5.268952 	 -1.638341 	 6.314171 
H 	 3.917769 	 -0.966592 	 5.755610 
H 	 3.086847 	 5.934637 	 2.285702 
H 	 3.166151 	 5.736086 	 0.778534 
H 	 -0.402339 	 -2.838351 	 -3.500545 
H 	 -0.249823 	 -2.194995 	 -4.843922 
H 	 -2.111469 	 7.004752 	 -0.927923 
O 	 -7.132544 	 -2.808421 	 -5.079357 
O 	 4.782422 	 -6.478189 	 -0.058188 
O 	 -5.325217 	 -3.600186 	 1.425228 
O 	 5.615302 	 -2.833193 	 -7.177032 
O 	 -6.268340 	 -4.494736 	 4.856271 
O 	 6.730816 	 -5.162140 	 2.791274 
O 	 -3.949138 	 -7.023164 	 -6.548354 
O 	 -6.164827 	 3.333563 	 2.774124 
O 	 -3.996779 	 -5.560385 	 -1.921008 
O 	 -4.943964 	 1.100157 	 3.600057 
O 	 3.282501 	 -2.256973 	 -5.581952 
O 	 -3.495937 	 4.200685 	 3.323452 
O 	 2.258990 	 1.476862 	 3.418735 
O 	 6.851154 	 4.156274 	 4.741847 
O 	 -0.287710 	 -2.492417 	 -1.721009 
O 	 6.658680 	 -2.382686 	 2.951425 
O 	 2.702189 	 -5.664084 	 2.229692 
O 	 -5.528028 	 6.589170 	 -1.186978 
O 	 -2.832367 	 5.630457 	 -3.629925 
O 	 0.748199 	 4.800481 	 -2.495110 
O 	 -2.417959 	 -0.807968 	 -3.263740 
O 	 1.656814 	 2.086165 	 -2.296917 
O 	 7.179209 	 -5.767649 	 -5.333320 
O 	 -5.433885 	 -1.754647 	 -6.890235 
O 	 1.779057 	 -7.030550 	 6.129494 
O 	 0.479515 	 -2.123264 	 2.342697 
O 	 -2.077075 	 0.536890 	 1.686564 
O 	 0.364957 	 -0.420557 	 -4.217693 
O 	 -7.231551 	 0.824371 	 -0.574000 
O 	 6.798518 	 6.244362 	 -3.039767 
O 	 3.889204 	 -3.221685 	 1.217577 
O 	 7.120950 	 6.688029 	 4.049528 
O 	 5.593332 	 -4.127291 	 -2.886349 
O 	 -6.949122 	 3.876729 	 -0.136690 
O 	 -6.465702 	 -6.496779 	 6.886546 
O 	 4.238811 	 -6.011277 	 -5.787816 
O 	 -5.681966 	 -7.270677 	 -4.238248 
O 	 0.990285 	 -5.802670 	 -2.287271 
O 	 0.507841 	 5.945379 	 3.369973 
O 	 4.471169 	 2.929704 	 0.779885 
O 	 -0.187535 	 0.060667 	 -0.331775 
O 	 3.924127 	 5.170415 	 4.856284 
O 	 -4.876020 	 1.468774 	 6.378673 
O 	 6.361810 	 -2.783993 	 0.158321 
O 	 -0.102405 	 3.792288 	 1.326397 
O 	 1.926916 	 -4.563114 	 -4.717021 
O 	 -5.376407 	 -0.915237 	 0.571703 
O 	 -4.285203 	 1.886937 	 0.741971 
O 	 -1.556404 	 6.952070 	 -5.503634 
O 	 -4.583001 	 4.337900 	 -5.651731 
O 	 -3.729086 	 -3.969884 	 7.486120 
O 	 2.421863 	 1.142086 	 0.085124 
O 	 4.287051 	 6.404992 	 -4.227295 
O 	 1.963965 	 2.041754 	 -5.432869 
O 	 0.522012 	 -6.796732 	 0.641507 
O 	 4.393185 	 -1.091414 	 2.849863 
O 	 -6.690648 	 -5.037608 	 -1.753405 
O 	 2.593919 	 -1.077483 	 -2.690877 
O 	 2.564607 	 -3.454548 	 -1.336362 
O 	 1.623144 	 5.651369 	 0.024805 
O 	 -0.776235 	 1.247457 	 6.130212 
O 	 1.665084 	 3.550989 	 5.054555 
O 	 5.675999 	 -0.756780 	 -1.706283 
O 	 -1.974555 	 1.900806 	 -2.000205 
O 	 -3.491432 	 -2.259236 	 -1.114946 
O 	 -1.092644 	 5.550033 	 6.498390 
O 	 -1.008466 	 -2.074904 	 6.678292 
O 	 -6.487459 	 5.493559 	 6.662549 
O 	 -6.257642 	 -1.633064 	 -2.635731 
O 	 -1.682258 	 -5.743211 	 -3.762773 
O 	 -2.813736 	 -0.596847 	 -6.153542 
O 	 6.427497 	 1.145513 	 1.810199 
O 	 -3.857399 	 6.175837 	 1.507108 
O 	 2.261224 	 -3.747219 	 4.404357 
O 	 -3.891537 	 -6.831453 	 5.210343 
O 	 -3.390395 	 -4.282812 	 4.243230 
O 	 2.750452 	 5.913945 	 -6.938906 
O 	 3.766507 	 -6.029455 	 -2.634919 
O 	 7.258953 	 1.312707 	 -7.186008 
O 	 -0.494576 	 -4.514519 	 5.865601 
O 	 -1.524029 	 3.391110 	 -4.304666 
O 	 6.411256 	 6.085711 	 0.209446 
O 	 -3.873224 	 4.505423 	 5.957724 
O 	 -2.594538 	 -2.271964 	 2.507271 
O 	 -5.485256 	 -7.095868 	 2.947066 
O 	 5.678419 	 4.756492 	 -6.999134 
O 	 2.235493 	 -0.826568 	 4.813368 
O 	 4.233255 	 3.680209 	 -4.487331 
O 	 5.413582 	 0.264466 	 -4.781678 
O 	 5.543863 	 3.419274 	 -2.257890 
O 	 0.083090 	 -5.842726 	 -6.529873 
O 	 4.261726 	 2.071857 	 -6.820980 
O 	 4.774356 	 -6.640665 	 4.343577 
O 	 -2.920555 	 -4.380062 	 0.370237 
O 	 -6.919164 	 2.926997 	 -4.927011 
O 	 5.068540 	 -5.238142 	 6.486009 
O 	 1.387311 	 -0.652817 	 -7.370805 
O 	 4.971129 	 2.004740 	 4.596445 
O 	 0.999707 	 3.821198 	 -7.258255 
O 	 -2.552790 	 3.602253 	 0.065735 
O 	 -1.197555 	 2.438024 	 3.573489 
O 	 -2.109596 	 -6.333943 	 2.165263 
O 	 -3.256679 	 -1.118646 	 5.624384 
O 	 -1.065462 	 -7.251703 	 4.800661 
O 	 -2.754478 	 2.068911 	 -6.459361 
O 	 1.053436 	 6.890896 	 -4.572925 
O 	 -6.284205 	 -1.802096 	 4.860197 
O 	 4.888863 	 -0.770020 	 6.003437 
O 	 3.743037 	 5.680966 	 1.648288 
O 	 -0.449680 	 -3.122736 	 -4.498303 
O 	 -1.955281 	 6.039138 	 -1.108373 
K 	 -6.999515 	 -6.238725 	 0.516006 
