333
conformation = 2
H 	 -6.239129 	 -653.641228 	 -95.464257 
H 	 -5.493604 	 -652.296419 	 -94.779288 
H 	 5.362086 	 343.761169 	 -90.077813 
H 	 6.155388 	 342.562670 	 -90.552405 
H 	 -3.783850 	 -653.442533 	 897.318334 
H 	 -4.081871 	 -652.759282 	 -89.154810 
H 	 6.329112 	 -652.620033 	 -97.039834 
H 	 -7.083430 	 -652.540029 	 -96.739573 
H 	 -5.014688 	 -655.134874 	 -99.916917 
H 	 -5.439781 	 -654.721031 	 -101.386171 
H 	 -7.475400 	 -655.462864 	 -102.031578 
H 	 -6.980269 	 -654.165065 	 897.345275 
H 	 -1.569241 	 342.807583 	 -97.074554 
H 	 -2.225438 	 344.268539 	 -97.355495 
H 	 -5.456896 	 338.938409 	 -102.002366 
H 	 -3.950954 	 338.926535 	 897.529070 
H 	 -1.797361 	 -655.440260 	 -93.108780 
H 	 -2.217329 	 -654.820203 	 -91.837233 
H 	 -3.911333 	 336.721343 	 897.642524 
H 	 -2.662910 	 335.846829 	 897.931795 
H 	 4.344167 	 -652.671545 	 -95.761530 
H 	 4.026880 	 -651.512846 	 -96.731052 
H 	 -1.486972 	 338.660018 	 897.923900 
H 	 -1.982143 	 340.020846 	 897.232276 
H 	 3.312296 	 336.767803 	 897.132539 
H 	 3.056602 	 337.407095 	 -101.354004 
H 	 -7.340629 	 338.233525 	 -100.605983 
H 	 -6.308772 	 339.150175 	 -99.675591 
H 	 2.201347 	 -652.688357 	 -91.646946 
H 	 0.947093 	 -651.746596 	 -91.611339 
H 	 7.188397 	 -652.199348 	 897.578156 
H 	 -6.351891 	 -652.126962 	 -101.725486 
H 	 4.339646 	 -654.638105 	 -88.807954 
H 	 3.252593 	 344.109409 	 -88.887270 
H 	 -3.619105 	 341.519790 	 -90.918537 
H 	 -4.901803 	 340.905584 	 -91.516585 
H 	 -0.880217 	 341.418243 	 -95.052629 
H 	 -2.270709 	 340.772892 	 -94.930398 
H 	 0.964657 	 340.333679 	 -92.715849 
H 	 2.031920 	 340.762259 	 -93.803988 
H 	 -1.363562 	 -650.460875 	 -94.915410 
H 	 -1.040078 	 335.323554 	 -93.493089 
H 	 2.363299 	 338.014908 	 -93.155458 
H 	 2.501162 	 336.510911 	 -93.371903 
H 	 -6.008263 	 343.924025 	 -95.265226 
H 	 992.519598 	 344.302379 	 -95.833358 
H 	 -4.532965 	 -651.652789 	 -98.511205 
H 	 -4.759639 	 -652.024734 	 -97.048408 
H 	 2.761824 	 343.432701 	 -99.884512 
H 	 2.269917 	 343.494372 	 -98.404218 
H 	 2.242717 	 -652.912758 	 897.009893 
H 	 1.027014 	 -652.034168 	 896.837017 
H 	 -0.162267 	 335.486442 	 -89.593305 
H 	 -1.050049 	 334.718979 	 896.584453 
H 	 2.394880 	 -650.821976 	 -94.153451 
H 	 0.935479 	 -650.437385 	 -94.546075 
H 	 -6.369298 	 335.930098 	 -91.800387 
H 	 -6.403102 	 336.310325 	 -90.292300 
H 	 -6.129612 	 341.555322 	 -94.011095 
H 	 -6.426036 	 342.004769 	 -92.577119 
H 	 5.060660 	 -652.275486 	 -88.846417 
H 	 5.941823 	 -653.390119 	 -89.565829 
H 	 -6.539025 	 340.865238 	 -101.557171 
H 	 -7.282999 	 342.315083 	 -101.599967 
H 	 6.972788 	 -653.628563 	 -92.532918 
H 	 6.667139 	 -654.574131 	 -93.653810 
H 	 -5.323142 	 338.223177 	 -90.870703 
H 	 -5.057945 	 339.020354 	 -89.642187 
H 	 -4.678953 	 343.421763 	 -97.789437 
H 	 -6.197182 	 343.805825 	 -98.022769 
H 	 5.420535 	 343.104914 	 -96.139441 
H 	 4.801740 	 344.450742 	 -95.916537 
H 	 -3.971804 	 342.983619 	 -93.845660 
H 	 -3.579293 	 342.967361 	 -95.348833 
H 	 1.346916 	 344.051362 	 -93.107236 
H 	 2.853303 	 343.596818 	 -92.985319 
H 	 1.588606 	 340.724668 	 -101.251699 
H 	 1.714487 	 340.396847 	 897.197963 
H 	 5.764418 	 339.398725 	 -89.567271 
H 	 5.107987 	 338.039165 	 -89.712023 
H 	 0.395108 	 335.862450 	 -91.798604 
H 	 1.649624 	 335.909307 	 -90.762317 
H 	 5.263440 	 341.574649 	 -100.553469 
H 	 6.020516 	 340.239906 	 -100.325848 
H 	 -3.721294 	 337.074298 	 -100.042642 
H 	 -3.034339 	 336.180211 	 -99.003377 
H 	 -6.839713 	 -652.539666 	 -89.802849 
H 	 -7.359962 	 -652.101000 	 -91.145444 
H 	 1.529454 	 338.205257 	 896.857855 
H 	 0.677106 	 338.736769 	 -89.415666 
H 	 3.513840 	 -654.721376 	 -94.183370 
H 	 2.447799 	 -653.929753 	 -94.839917 
H 	 -4.874534 	 334.699476 	 -90.334331 
H 	 -3.492803 	 -651.080416 	 -91.050383 
H 	 -2.355990 	 336.480354 	 -89.334929 
H 	 -3.550415 	 336.382477 	 -90.406617 
H 	 1.354110 	 342.060996 	 -95.303884 
H 	 0.077175 	 341.529079 	 -96.826741 
H 	 -3.898168 	 338.928171 	 -95.654601 
H 	 -4.076867 	 340.019485 	 -96.666450 
H 	 -1.540285 	 -653.435358 	 -97.930268 
H 	 -2.985384 	 -653.533006 	 -97.352853 
H 	 4.229921 	 335.719570 	 -90.878832 
H 	 3.610236 	 336.972622 	 -91.115349 
H 	 5.511464 	 340.789099 	 -94.816854 
H 	 6.755466 	 341.613015 	 -94.282638 
H 	 3.874410 	 337.728754 	 -95.500808 
H 	 2.817774 	 336.698065 	 -95.248217 
H 	 2.048216 	 342.470330 	 -90.025106 
H 	 1.684645 	 343.595230 	 -91.103756 
H 	 6.174774 	 334.981895 	 897.621517 
H 	 4.901866 	 -650.921985 	 -101.778201 
H 	 -5.732297 	 -654.665897 	 -93.029365 
H 	 -4.240333 	 -655.024736 	 -92.703562 
H 	 4.219071 	 -651.953481 	 -93.026747 
H 	 4.397807 	 -650.902097 	 -94.225972 
H 	 3.727767 	 -654.371682 	 -91.805676 
H 	 4.318882 	 -653.183398 	 -90.965818 
H 	 2.838251 	 340.610136 	 -91.531587 
H 	 2.333227 	 339.912064 	 -90.220907 
H 	 -0.263070 	 336.591019 	 -98.932615 
H 	 0.369629 	 335.302420 	 -99.407235 
H 	 3.703428 	 339.316775 	 -100.514586 
H 	 2.813598 	 338.609156 	 -99.388135 
H 	 -7.405149 	 -650.869301 	 -93.244957 
H 	 6.224090 	 -650.414430 	 -92.757725 
H 	 -0.798503 	 337.477273 	 -91.867384 
H 	 -0.400048 	 337.463677 	 -93.400723 
H 	 -1.710949 	 -651.297164 	 -92.526829 
H 	 -1.536581 	 -652.547272 	 -91.627714 
H 	 -0.644124 	 340.304351 	 -99.243849 
H 	 0.801572 	 340.308088 	 -98.474433 
H 	 1.213953 	 -651.485312 	 -98.488186 
H 	 0.575725 	 -652.323063 	 -99.525379 
H 	 -4.145555 	 340.262468 	 -99.339882 
H 	 -5.311189 	 341.198840 	 -99.259242 
H 	 -5.357527 	 -651.077748 	 -92.493586 
H 	 -4.371499 	 -652.142852 	 -92.993231 
H 	 -0.775899 	 343.711387 	 -94.953569 
H 	 -0.253016 	 -654.777009 	 -94.622569 
H 	 -2.439083 	 -650.749999 	 -96.962662 
H 	 -1.759930 	 335.630508 	 -96.635393 
H 	 7.170685 	 336.941723 	 -88.805274 
H 	 -6.329173 	 336.757842 	 897.088645 
H 	 -2.080086 	 342.162744 	 -89.201354 
H 	 -3.403496 	 341.803271 	 896.645499 
H 	 3.749182 	 -654.557752 	 -101.711481 
H 	 3.509777 	 -654.219519 	 -100.221370 
H 	 -1.614129 	 342.835966 	 -100.498945 
H 	 -2.617318 	 343.085813 	 -99.323331 
H 	 -1.403203 	 -654.404293 	 -100.505201 
H 	 -2.730456 	 -654.765429 	 -101.157284 
H 	 4.949269 	 340.841550 	 -97.358138 
H 	 4.021557 	 341.919379 	 -97.979383 
H 	 5.665695 	 343.196005 	 -93.601228 
H 	 5.375110 	 343.885243 	 -92.252585 
H 	 -5.276835 	 336.846635 	 -98.305075 
H 	 -5.898393 	 335.588768 	 -97.416066 
H 	 1.066863 	 -654.642299 	 -98.565361 
H 	 0.793248 	 -655.400940 	 -99.969143 
H 	 -0.754697 	 339.397909 	 -94.579456 
H 	 0.489759 	 338.732357 	 -95.232279 
H 	 -6.778595 	 340.676995 	 -90.176233 
H 	 7.102412 	 341.326206 	 -89.202154 
H 	 -2.268210 	 339.670338 	 -100.319741 
H 	 -2.312857 	 338.823829 	 -99.073808 
H 	 -1.630147 	 -652.728683 	 -88.726065 
H 	 -1.043013 	 -652.699876 	 897.746125 
H 	 -5.104320 	 342.480395 	 897.840425 
H 	 -3.746738 	 342.911429 	 -101.639174 
H 	 -7.208437 	 340.015944 	 -97.152702 
H 	 6.878527 	 338.864803 	 -97.892335 
H 	 3.168487 	 334.937713 	 -101.328974 
H 	 3.015580 	 -651.756452 	 -101.275805 
H 	 6.059137 	 338.700108 	 -94.590186 
H 	 5.846857 	 338.899273 	 -96.142940 
H 	 6.593026 	 335.730256 	 -95.954954 
H 	 6.490564 	 -650.808815 	 -95.391708 
H 	 -7.124068 	 339.368787 	 -92.836271 
H 	 6.913486 	 338.582019 	 -91.848237 
H 	 2.012095 	 344.327555 	 -96.204963 
H 	 0.706641 	 343.688827 	 -96.808752 
H 	 4.785111 	 336.689668 	 -97.362657 
H 	 5.905496 	 336.486211 	 -98.362713 
H 	 5.223745 	 343.674714 	 -101.834817 
H 	 5.944678 	 343.951088 	 -100.409230 
H 	 -1.397509 	 -654.945889 	 -89.811900 
H 	 -2.770294 	 -654.205786 	 -89.608994 
H 	 -5.456959 	 337.532271 	 -94.874548 
H 	 -5.776254 	 337.509571 	 -96.368899 
H 	 6.184744 	 -655.351951 	 -98.018289 
H 	 6.979253 	 -654.383783 	 -98.883821 
H 	 3.357608 	 334.775754 	 -98.562136 
H 	 2.637832 	 335.235461 	 -97.132879 
H 	 6.406793 	 336.192842 	 -100.702701 
H 	 5.302051 	 337.106264 	 -101.327938 
H 	 2.976857 	 339.879696 	 -97.467400 
H 	 2.367813 	 338.497656 	 -97.168139 
H 	 -1.961807 	 338.564354 	 -90.038030 
H 	 -1.205165 	 339.747310 	 -90.739280 
H 	 -0.275653 	 336.847646 	 897.525762 
H 	 0.171567 	 337.285043 	 -101.060238 
H 	 -0.813244 	 343.942760 	 897.478225 
H 	 0.268626 	 343.583792 	 -88.777584 
H 	 -1.280963 	 -651.192449 	 -99.523872 
H 	 -1.489686 	 -651.081083 	 -101.010627 
H 	 0.349941 	 342.262728 	 -100.107163 
H 	 0.946353 	 342.625399 	 -101.459211 
H 	 -2.287062 	 337.978665 	 -97.183171 
H 	 -1.191771 	 337.936957 	 -96.130418 
H 	 2.781530 	 341.466868 	 -95.416724 
H 	 -0.912770 	 341.316973 	 -92.711657 
H 	 -4.138017 	 -651.384801 	 -100.854022 
H 	 -4.889260 	 -652.664433 	 -100.494830 
H 	 6.850616 	 -650.766111 	 -98.975244 
H 	 5.796405 	 -651.372821 	 -99.821171 
H 	 5.052318 	 340.620821 	 897.152901 
H 	 4.243019 	 340.941728 	 -89.144901 
H 	 0.756267 	 -652.695682 	 -94.088271 
H 	 0.597028 	 -652.394271 	 -95.613998 
H 	 -0.027074 	 341.994375 	 -91.572565 
O 	 -5.761966 	 -652.804564 	 -95.596210 
O 	 6.017807 	 343.494040 	 -90.786947 
O 	 -4.148023 	 -653.615664 	 -88.662499 
O 	 7.195961 	 -652.646300 	 -97.479508 
O 	 -4.799234 	 -654.551139 	 -100.673052 
O 	 -6.798728 	 -655.147962 	 897.365067 
O 	 -2.433389 	 343.314312 	 -97.194184 
O 	 -4.841460 	 338.656885 	 897.287785 
O 	 -2.574507 	 -655.430260 	 -92.459085 
O 	 -3.497509 	 336.115439 	 -101.691367 
O 	 4.744104 	 -651.871959 	 -96.150579 
O 	 -2.142379 	 339.421362 	 -102.009905 
O 	 3.429058 	 336.622144 	 -101.927733 
O 	 -6.737612 	 339.016495 	 -100.530805 
O 	 1.276881 	 -652.609958 	 -91.912600 
O 	 -6.809838 	 -652.466104 	 897.477814 
O 	 4.009515 	 344.524140 	 896.664928 
O 	 -4.296120 	 341.647075 	 -91.610813 
O 	 -1.470963 	 340.864008 	 -94.440112 
O 	 1.762537 	 339.956011 	 -93.159681 
O 	 -0.833129 	 -650.536038 	 -94.083986 
O 	 3.025318 	 337.261534 	 -93.154829 
O 	 -6.513643 	 344.302561 	 -95.952279 
O 	 -4.149456 	 -651.540371 	 -97.621149 
O 	 2.933775 	 343.113978 	 -98.978807 
O 	 1.998428 	 -651.937022 	 896.917966 
O 	 -0.764582 	 335.652975 	 -88.807056 
O 	 1.867363 	 334.865613 	 -94.768234 
O 	 -5.767606 	 336.246529 	 -91.086479 
O 	 -6.679550 	 341.338038 	 -93.217676 
O 	 5.038794 	 -653.126759 	 -89.292094 
O 	 -6.395768 	 341.821254 	 -101.460533 
O 	 7.311659 	 -653.860847 	 -93.423221 
O 	 -5.457924 	 339.132952 	 -90.538166 
O 	 -5.382234 	 343.415547 	 -98.486329 
O 	 5.555890 	 344.018121 	 -96.386314 
O 	 -4.353694 	 342.763605 	 -94.738596 
O 	 2.134854 	 344.070804 	 -92.549812 
O 	 1.992949 	 341.075117 	 897.881334 
O 	 6.007386 	 338.426965 	 -89.750797 
O 	 0.836271 	 335.406230 	 -91.059701 
O 	 5.158213 	 340.642272 	 -100.622285 
O 	 -3.492887 	 337.016876 	 -99.115471 
O 	 -7.284730 	 -652.903259 	 -90.581638 
O 	 1.566662 	 338.843782 	 -89.025564 
O 	 3.250774 	 -654.436327 	 -95.084843 
O 	 -4.029121 	 -650.885697 	 -90.207471 
O 	 -3.038082 	 336.973431 	 -89.866571 
O 	 -0.093377 	 342.140787 	 -96.090839 
O 	 -3.334975 	 339.497339 	 -96.301271 
O 	 -2.279699 	 -654.059406 	 -97.807475 
O 	 3.660259 	 336.318109 	 -90.351351 
O 	 5.871048 	 341.672621 	 -94.736332 
O 	 3.161488 	 337.222864 	 -96.022660 
O 	 1.722897 	 343.419234 	 -90.056088 
O 	 5.582548 	 -650.856798 	 897.488124 
O 	 -5.172643 	 -655.191827 	 -92.421469 
O 	 4.172003 	 -650.984999 	 -93.259497 
O 	 3.950428 	 -653.424226 	 -91.855767 
O 	 2.784348 	 340.744967 	 -90.581671 
O 	 0.506368 	 336.272809 	 -99.497693 
O 	 3.055489 	 338.652202 	 -100.344630 
O 	 7.154539 	 -650.559005 	 -92.393931 
O 	 -0.606373 	 336.906614 	 -92.627667 
O 	 -2.205934 	 -651.970180 	 -92.032273 
O 	 0.174964 	 340.867575 	 -99.025781 
O 	 0.344383 	 -651.878839 	 -98.705388 
O 	 -5.035673 	 340.305333 	 -98.939744 
O 	 -5.014840 	 -651.486154 	 -93.331960 
O 	 -0.616718 	 344.373943 	 -94.218769 
O 	 -1.576783 	 -650.431977 	 -96.630038 
O 	 -6.966800 	 336.337749 	 -88.674540 
O 	 -2.767619 	 341.438321 	 -89.143324 
O 	 3.860359 	 -653.795505 	 -101.073942 
O 	 -2.524601 	 343.178612 	 -100.302282 
O 	 -2.006289 	 -654.113696 	 -101.221611 
O 	 4.093992 	 341.227265 	 -97.251715 
O 	 5.138501 	 343.948867 	 -93.256996 
O 	 -6.054289 	 336.484957 	 -97.836708 
O 	 0.994046 	 -654.516161 	 -99.547468 
O 	 -0.378499 	 338.516150 	 -94.832540 
O 	 -7.205718 	 341.544755 	 -89.961164 
O 	 -2.308230 	 339.758668 	 -99.324725 
O 	 -1.257440 	 -652.056845 	 897.024711 
O 	 -4.251600 	 342.915273 	 897.531911 
O 	 6.861784 	 339.823821 	 -97.647862 
O 	 3.440916 	 -650.966437 	 -100.879292 
O 	 5.376581 	 338.854296 	 -95.272744 
O 	 6.987221 	 335.127829 	 -95.254009 
O 	 7.071428 	 338.700471 	 -92.785196 
O 	 1.375351 	 344.395914 	 -96.980320 
O 	 5.767732 	 336.857033 	 -97.482775 
O 	 5.948948 	 343.396390 	 -101.246482 
O 	 -1.920530 	 -654.098305 	 -89.978832 
O 	 -5.585688 	 338.159477 	 -95.593865 
O 	 6.564562 	 -655.270886 	 -98.942971 
O 	 2.978761 	 -650.593722 	 -97.707260 
O 	 6.221671 	 337.089844 	 -100.965266 
O 	 2.283468 	 339.230308 	 -97.796825 
O 	 -1.098275 	 338.863423 	 -90.456716 
O 	 -0.058509 	 337.653478 	 -101.926903 
O 	 -0.691662 	 343.702315 	 896.534855 
O 	 -1.935272 	 -650.946105 	 -100.173949 
O 	 0.373899 	 343.035719 	 -100.773198 
O 	 -1.599771 	 337.396696 	 -96.900683 
O 	 2.258340 	 341.995706 	 -94.766362 
O 	 -5.034020 	 -651.688225 	 -100.552164 
O 	 6.219673 	 -650.493213 	 -99.659071 
O 	 5.144718 	 340.868443 	 -88.875139 
O 	 0.769867 	 -653.105219 	 -94.944591 
O 	 -0.375471 	 341.130164 	 -91.898034 
K 	 -5.584022 	 343.918409 	 -90.045804 
