333
conformation = 15
H 	 -7.333966 	 -3.650803 	 -4.654187 
H 	 -6.976519 	 -2.339844 	 -4.049365 
H 	 4.061049 	 -6.371824 	 0.590128 
H 	 5.198875 	 7.567113 	 -0.051531 
H 	 -5.116212 	 -3.476785 	 2.813305 
H 	 -5.535838 	 -2.658140 	 1.598070 
H 	 5.114421 	 -2.668055 	 -6.258864 
H 	 6.640409 	 -2.535606 	 -6.309473 
H 	 -6.306952 	 -5.093357 	 5.642040 
H 	 -6.835368 	 -4.777420 	 4.282194 
H 	 6.160867 	 -5.566935 	 3.454655 
H 	 6.675742 	 -4.137667 	 3.006106 
H 	 -2.927935 	 -7.254019 	 -6.265503 
H 	 -3.416368 	 -5.826769 	 -6.587537 
H 	 -6.741472 	 3.602524 	 3.589323 
H 	 -5.316477 	 4.022908 	 3.103768 
H 	 -3.199274 	 -5.417485 	 -2.529261 
H 	 -3.725089 	 -4.705327 	 -1.207577 
H 	 -5.228511 	 1.695426 	 3.174690 
H 	 -3.960757 	 0.868396 	 3.455866 
H 	 2.970401 	 -2.674865 	 -5.082650 
H 	 2.686254 	 -1.443457 	 -5.989926 
H 	 -2.718434 	 3.624412 	 3.522064 
H 	 -3.380914 	 4.888042 	 2.730203 
H 	 1.920432 	 1.744303 	 2.700561 
H 	 1.808239 	 2.265437 	 4.193354 
H 	 6.260506 	 3.207539 	 5.109399 
H 	 7.291462 	 4.312098 	 5.814620 
H 	 0.891572 	 -2.702925 	 -1.158822 
H 	 -0.208837 	 -1.740977 	 -0.843959 
H 	 5.964182 	 -1.953759 	 3.057934 
H 	 7.256448 	 -2.085709 	 3.815370 
H 	 2.860266 	 -4.644314 	 1.782625 
H 	 1.985045 	 -5.863195 	 1.678035 
H 	 -4.874350 	 6.508006 	 -0.337818 
H 	 -6.044658 	 5.761194 	 -0.811967 
H 	 -2.231655 	 6.315622 	 -4.541501 
H 	 -3.561790 	 5.477849 	 -4.133768 
H 	 -0.356172 	 5.129703 	 -2.165360 
H 	 0.778692 	 5.595198 	 -3.173465 
H 	 -2.578833 	 -0.372140 	 -4.265692 
H 	 -2.241284 	 0.278760 	 -2.871558 
H 	 1.061628 	 2.908659 	 -2.427222 
H 	 1.274441 	 1.378608 	 -2.669725 
H 	 7.444669 	 -6.118445 	 -4.513646 
H 	 6.157060 	 -5.731666 	 -5.169511 
H 	 -5.827600 	 -1.847930 	 7.124166 
H 	 -5.907337 	 -1.969221 	 -6.213381 
H 	 1.387203 	 -6.652717 	 5.584591 
H 	 0.980354 	 -6.517746 	 7.031583 
H 	 0.848057 	 -2.900681 	 2.736711 
H 	 -0.246524 	 -1.872746 	 2.128091 
H 	 -1.431467 	 0.503119 	 1.018602 
H 	 -2.291411 	 -0.377052 	 2.037570 
H 	 0.964418 	 -0.840872 	 -3.382055 
H 	 -0.428378 	 -0.338795 	 -3.952811 
H 	 7.267885 	 0.818930 	 -1.198728 
H 	 7.200981 	 1.231194 	 0.335948 
H 	 -7.406973 	 6.416991 	 -3.414248 
H 	 7.120523 	 6.952173 	 -2.038470 
H 	 3.911247 	 -2.297532 	 1.850188 
H 	 4.716863 	 -3.209821 	 1.046270 
H 	 7.042836 	 5.808067 	 3.927065 
H 	 6.300829 	 7.165971 	 4.097371 
H 	 5.662304 	 -3.701449 	 -1.865092 
H 	 5.339698 	 -4.658836 	 -3.009409 
H 	 -6.978144 	 3.118890 	 -0.317568 
H 	 -6.464906 	 3.863804 	 1.021831 
H 	 -5.879195 	 -6.656051 	 -7.248554 
H 	 -7.370706 	 -6.330236 	 -7.205345 
H 	 4.098718 	 -6.893969 	 -5.516266 
H 	 3.445995 	 -5.446436 	 -5.491200 
H 	 -5.280203 	 -7.246726 	 -3.197920 
H 	 -4.956205 	 -6.850329 	 -4.756173 
H 	 0.124224 	 -5.862575 	 -2.522393 
H 	 1.429010 	 -6.536497 	 -2.434395 
H 	 0.226554 	 5.668870 	 4.278481 
H 	 0.299730 	 5.357996 	 2.771985 
H 	 4.647739 	 4.264698 	 0.964354 
H 	 3.715708 	 3.006650 	 0.884869 
H 	 -0.739384 	 0.937703 	 -1.024317 
H 	 0.515667 	 0.588905 	 -0.130478 
H 	 4.047242 	 6.396050 	 5.070545 
H 	 4.703914 	 5.038463 	 5.282940 
H 	 -4.799257 	 1.867154 	 5.459723 
H 	 -4.402467 	 0.963304 	 6.509059 
H 	 6.760731 	 -2.422399 	 0.844357 
H 	 6.232473 	 -2.179296 	 -0.601419 
H 	 0.180779 	 3.251055 	 2.424464 
H 	 -0.679304 	 3.702372 	 1.249291 
H 	 2.268825 	 -4.632368 	 -3.545717 
H 	 1.132233 	 -3.974058 	 -4.539491 
H 	 -6.166147 	 -0.334214 	 0.320007 
H 	 -4.946956 	 -0.966818 	 -0.477116 
H 	 -3.599783 	 1.229852 	 1.104928 
H 	 -4.901518 	 1.261607 	 0.399249 
H 	 0.107582 	 6.934349 	 -4.712957 
H 	 -1.259321 	 6.541621 	 -6.257453 
H 	 -5.237872 	 3.640021 	 -5.277283 
H 	 -5.232521 	 4.952665 	 -6.154123 
H 	 -2.900617 	 -3.365792 	 -7.303152 
H 	 -4.386313 	 -3.463141 	 -6.935535 
H 	 2.838697 	 0.440981 	 -0.088248 
H 	 2.071235 	 1.825944 	 -0.450357 
H 	 4.095869 	 5.699117 	 -4.187849 
H 	 5.344145 	 6.232324 	 -3.542546 
H 	 2.650730 	 2.667309 	 -4.889477 
H 	 1.375828 	 1.584424 	 -4.733799 
H 	 0.653164 	 7.307907 	 0.470192 
H 	 0.594499 	 -6.175654 	 -0.353956 
H 	 4.888286 	 -0.147386 	 3.194979 
H 	 3.593311 	 -0.877640 	 3.760682 
H 	 -7.002805 	 -4.564450 	 -2.329181 
H 	 -5.530452 	 -5.247961 	 -1.960742 
H 	 2.761113 	 -1.991188 	 -2.555005 
H 	 3.163485 	 -0.841249 	 -3.532350 
H 	 2.251768 	 -4.278923 	 -1.278518 
H 	 2.969130 	 -3.229156 	 -0.287543 
H 	 1.525586 	 5.503605 	 -0.881519 
H 	 1.010048 	 4.871110 	 0.421674 
H 	 -1.293110 	 1.672400 	 6.773769 
H 	 -0.886453 	 0.228994 	 6.150254 
H 	 2.402970 	 4.235733 	 5.204048 
H 	 1.517109 	 3.555137 	 6.161559 
H 	 6.213720 	 -0.909833 	 -2.534362 
H 	 4.859219 	 -0.588557 	 -1.712249 
H 	 -2.158613 	 2.492949 	 -1.261998 
H 	 -1.655196 	 2.429238 	 -2.697109 
H 	 -2.945444 	 -1.488981 	 -1.947262 
H 	 -2.859306 	 -2.536584 	 -0.764959 
H 	 -1.892005 	 5.142066 	 6.289319 
H 	 -0.366889 	 5.111109 	 6.780945 
H 	 -0.141845 	 -1.472662 	 7.118534 
H 	 -0.761561 	 -2.470462 	 6.083200 
H 	 -5.417352 	 5.144680 	 6.344149 
H 	 -6.692172 	 6.161149 	 6.354011 
H 	 -6.620067 	 -1.005900 	 -1.875095 
H 	 -5.714143 	 -2.189268 	 -2.307909 
H 	 -2.145596 	 -6.310458 	 -4.275143 
H 	 -1.531544 	 -4.842218 	 -4.094853 
H 	 -3.620089 	 -0.901970 	 -6.334687 
H 	 -2.970424 	 0.534401 	 -6.084370 
H 	 5.944148 	 1.935776 	 1.913239 
H 	 7.275785 	 1.716765 	 2.539703 
H 	 -3.394465 	 7.086609 	 1.520985 
H 	 -4.679150 	 6.734302 	 2.145388 
H 	 2.521897 	 -4.578333 	 3.876509 
H 	 2.238367 	 -4.032315 	 5.398151 
H 	 -2.847358 	 -6.994025 	 5.183832 
H 	 -4.025591 	 -6.752606 	 6.184180 
H 	 -2.757098 	 -4.481191 	 5.031205 
H 	 -4.044463 	 -4.780331 	 4.359772 
H 	 3.652782 	 5.712830 	 -6.761779 
H 	 2.673695 	 6.791131 	 7.530328 
H 	 3.940879 	 -6.894164 	 -2.980165 
H 	 4.111600 	 -6.131650 	 -1.567608 
H 	 -6.635701 	 1.431155 	 7.109989 
H 	 -7.106635 	 0.559393 	 -6.676403 
H 	 -0.372872 	 -4.670890 	 6.946259 
H 	 -0.311179 	 -5.404637 	 5.607296 
H 	 -2.066325 	 4.382580 	 -3.948274 
H 	 -0.730743 	 3.624258 	 -4.350917 
H 	 6.890806 	 5.597449 	 0.336405 
H 	 5.920521 	 6.213395 	 1.454680 
H 	 -3.719681 	 4.539742 	 5.207229 
H 	 -3.792925 	 3.773701 	 6.531974 
H 	 -2.777322 	 -2.901544 	 1.986367 
H 	 -2.402229 	 -2.471155 	 3.461479 
H 	 -6.310792 	 7.261942 	 3.161344 
H 	 -5.014279 	 -7.211711 	 3.911630 
H 	 6.512249 	 4.966293 	 -6.680523 
H 	 5.646975 	 3.791659 	 -7.159140 
H 	 1.862224 	 -0.131289 	 4.265493 
H 	 1.679432 	 -1.661365 	 4.251985 
H 	 4.774103 	 3.721471 	 -3.855475 
H 	 4.752014 	 3.910928 	 -5.377655 
H 	 5.105599 	 0.620592 	 -5.296645 
H 	 5.289154 	 -0.794256 	 -4.653664 
H 	 6.358396 	 4.335392 	 -2.215783 
H 	 5.453218 	 3.639162 	 -1.240165 
H 	 0.881935 	 -5.527000 	 -5.729092 
H 	 -0.535452 	 -6.205610 	 -5.831100 
H 	 3.455187 	 1.577715 	 -6.627650 
H 	 4.686065 	 1.600906 	 7.232322 
H 	 3.940662 	 -6.294818 	 3.770441 
H 	 4.718774 	 -5.952223 	 5.157076 
H 	 -2.701541 	 -5.009402 	 0.850226 
H 	 -4.050125 	 -4.193915 	 0.980002 
H 	 -6.801299 	 2.336253 	 -4.306358 
H 	 -7.239637 	 2.663268 	 -5.745243 
H 	 4.885105 	 -5.404411 	 7.518125 
H 	 5.444024 	 -4.283781 	 6.575472 
H 	 2.092268 	 -0.205001 	 7.032121 
H 	 1.286935 	 0.230454 	 -6.671667 
H 	 5.098133 	 1.172822 	 4.970174 
H 	 4.010427 	 1.949070 	 4.251283 
H 	 1.700212 	 4.787733 	 -6.911589 
H 	 1.074006 	 3.358208 	 -6.513487 
H 	 -3.330336 	 3.394889 	 0.515503 
H 	 -2.508857 	 4.638376 	 -0.120559 
H 	 -1.543531 	 1.795499 	 3.051199 
H 	 -1.023563 	 2.124005 	 4.471741 
H 	 -2.000156 	 -6.198797 	 3.122767 
H 	 -1.055223 	 -6.337488 	 1.913974 
H 	 -2.534174 	 -1.264954 	 6.087577 
H 	 -2.801124 	 -1.135502 	 4.585262 
H 	 -0.857188 	 7.214987 	 5.524962 
H 	 -0.548714 	 7.494933 	 3.979716 
H 	 -3.497902 	 2.877365 	 -6.618616 
H 	 -2.332225 	 2.841212 	 -5.596691 
H 	 1.734551 	 6.775144 	 -4.832261 
H 	 -2.299371 	 6.271235 	 -1.969412 
H 	 -5.438536 	 -1.295010 	 4.744306 
H 	 -6.210716 	 -2.665658 	 5.006730 
H 	 5.517366 	 -0.887753 	 6.590776 
H 	 4.313469 	 -1.246774 	 5.597914 
H 	 3.778614 	 5.602152 	 2.672658 
H 	 2.966356 	 5.808884 	 1.341576 
H 	 -0.462388 	 -2.513899 	 -3.546972 
H 	 -0.639589 	 -2.358712 	 -5.028251 
H 	 -1.349170 	 6.857745 	 -0.808274 
O 	 -7.071988 	 -2.761323 	 -4.956078 
O 	 4.728487 	 -6.473847 	 -0.145620 
O 	 -5.384223 	 -3.600703 	 1.884000 
O 	 5.861996 	 -2.678642 	 -6.863424 
O 	 -6.119735 	 -4.500561 	 4.878622 
O 	 6.796453 	 -5.125666 	 2.892999 
O 	 -3.753819 	 -6.750481 	 -6.541255 
O 	 -6.106537 	 3.537631 	 2.828974 
O 	 -3.878360 	 -5.423903 	 -1.806846 
O 	 -4.824228 	 1.060028 	 3.823829 
O 	 3.407740 	 -1.932641 	 -5.535098 
O 	 -3.435009 	 4.308093 	 3.520473 
O 	 2.165830 	 1.521071 	 3.597638 
O 	 6.870689 	 3.993069 	 4.994510 
O 	 -0.056706 	 -2.567571 	 -1.332521 
O 	 6.781394 	 -2.444728 	 3.041227 
O 	 2.718426 	 -5.472650 	 2.241763 
O 	 -5.578800 	 6.595416 	 -1.002397 
O 	 -2.746489 	 5.746552 	 -3.732434 
O 	 0.540704 	 4.878816 	 -2.488724 
O 	 -2.202426 	 -0.587862 	 -3.367226 
O 	 1.720131 	 2.175099 	 -2.473113 
O 	 7.123323 	 -5.706228 	 -5.291425 
O 	 -5.434887 	 -1.551049 	 -6.944909 
O 	 1.665465 	 -6.888072 	 6.491701 
O 	 0.665718 	 -1.948124 	 2.465883 
O 	 -2.066482 	 0.600376 	 1.825849 
O 	 0.555276 	 -0.313633 	 -4.125624 
O 	 -7.077398 	 1.077178 	 -0.432156 
O 	 6.868097 	 6.262589 	 -2.657594 
O 	 3.783500 	 -3.114539 	 1.378771 
O 	 7.239367 	 6.744539 	 4.101412 
O 	 5.932813 	 -3.900473 	 -2.785195 
O 	 -6.764928 	 3.987806 	 0.073246 
O 	 -6.639410 	 -6.533220 	 7.017062 
O 	 4.260619 	 -5.965824 	 -5.720997 
O 	 -5.636801 	 -7.200743 	 -4.118496 
O 	 0.905308 	 -5.883643 	 -1.947129 
O 	 0.684948 	 5.994258 	 3.425727 
O 	 4.651250 	 3.266163 	 0.903988 
O 	 -0.401502 	 0.278305 	 -0.400487 
O 	 3.874633 	 5.477972 	 4.931742 
O 	 -4.790847 	 1.852891 	 6.451668 
O 	 6.337610 	 -2.854025 	 0.094547 
O 	 0.237357 	 3.780191 	 1.563934 
O 	 1.957835 	 -4.474119 	 -4.459299 
O 	 -5.322116 	 -0.840655 	 0.467635 
O 	 -4.294530 	 1.894445 	 0.783077 
O 	 -1.426343 	 7.026906 	 -5.428935 
O 	 -4.618169 	 4.399006 	 -5.625885 
O 	 -3.609847 	 -4.026497 	 -7.194211 
O 	 2.407137 	 1.231395 	 0.264641 
O 	 4.578607 	 6.536291 	 -4.096771 
O 	 1.911286 	 2.133881 	 -5.364041 
O 	 0.459421 	 -6.613075 	 0.596892 
O 	 4.316802 	 -0.901222 	 3.024173 
O 	 -6.486175 	 -5.140350 	 -1.733022 
O 	 2.795551 	 -0.996837 	 -2.618627 
O 	 2.667216 	 -3.390462 	 -1.239184 
O 	 1.532038 	 5.670100 	 0.070170 
O 	 -0.787107 	 1.198168 	 6.053721 
O 	 1.755073 	 3.544293 	 5.181784 
O 	 5.851997 	 -0.557610 	 -1.722584 
O 	 -1.918276 	 1.830180 	 -1.969665 
O 	 -3.474280 	 -2.011653 	 -1.305479 
O 	 -1.114466 	 5.742585 	 6.529746 
O 	 -0.975969 	 -1.883822 	 6.818280 
O 	 -6.356263 	 5.270989 	 6.599511 
O 	 -6.299184 	 -1.497696 	 -2.676416 
O 	 -1.877834 	 -5.640727 	 -3.583084 
O 	 -2.849521 	 -0.427568 	 -6.010311 
O 	 6.619589 	 1.229345 	 1.938134 
O 	 -4.041361 	 6.318894 	 1.532638 
O 	 2.518999 	 -3.774630 	 4.465931 
O 	 -3.821521 	 -6.788834 	 5.225829 
O 	 -3.329804 	 -4.118548 	 4.324393 
O 	 2.792727 	 6.088584 	 -6.658401 
O 	 3.869502 	 -6.015660 	 -2.554780 
O 	 -7.414403 	 1.395078 	 -7.159124 
O 	 -0.327096 	 -4.492964 	 5.975655 
O 	 -1.689244 	 3.440687 	 -4.230676 
O 	 6.381217 	 6.404686 	 0.605486 
O 	 -3.629071 	 4.651701 	 6.162526 
O 	 -2.587942 	 -2.088779 	 2.575357 
O 	 -5.524415 	 -7.054646 	 3.084265 
O 	 5.592855 	 4.762888 	 -6.981982 
O 	 2.176322 	 -0.932185 	 4.688615 
O 	 4.142126 	 3.759219 	 -4.614336 
O 	 5.645025 	 0.113887 	 -4.623646 
O 	 5.736426 	 3.580821 	 -2.160322 
O 	 0.084700 	 -5.629039 	 -6.340300 
O 	 4.400393 	 1.859190 	 -6.790349 
O 	 4.692868 	 -6.572758 	 4.322718 
O 	 -3.149818 	 -4.140334 	 0.586877 
O 	 -6.846282 	 3.065195 	 -4.925635 
O 	 5.242004 	 -5.244471 	 6.594944 
O 	 1.641497 	 -0.590634 	 -7.098090 
O 	 4.945786 	 2.039663 	 4.579591 
O 	 1.016599 	 4.090128 	 -7.149922 
O 	 -2.445494 	 3.756703 	 0.181766 
O 	 -1.319133 	 2.549993 	 3.644773 
O 	 -2.008614 	 -6.274854 	 2.147229 
O 	 -3.200843 	 -0.990056 	 5.438541 
O 	 -0.953742 	 -6.992629 	 4.776257 
O 	 -2.880771 	 2.285583 	 -6.239836 
O 	 0.980952 	 6.910069 	 -4.214323 
O 	 -6.319181 	 -1.691956 	 4.958663 
O 	 4.928965 	 -0.542659 	 5.904611 
O 	 3.818428 	 5.761719 	 1.736724 
O 	 -0.493285 	 -3.044979 	 -4.323169 
O 	 -1.725840 	 6.043910 	 -1.208237 
K 	 -6.896229 	 -6.099500 	 0.579077 
