333
conformation = 18
H 	 -7.324570 	 -3.684980 	 -4.666629 
H 	 -7.071058 	 -2.306421 	 -4.056006 
H 	 4.036468 	 -6.433715 	 0.626658 
H 	 5.192933 	 -7.271852 	 -0.064215 
H 	 -5.177780 	 -3.530226 	 2.777478 
H 	 -5.614135 	 -2.677429 	 1.602884 
H 	 5.058920 	 -2.651990 	 -6.220771 
H 	 6.610455 	 -2.546699 	 -6.350002 
H 	 -6.324885 	 -5.077491 	 5.655088 
H 	 -6.882914 	 -4.811874 	 4.274790 
H 	 6.088578 	 -5.625441 	 3.439389 
H 	 6.656329 	 -4.142585 	 3.006593 
H 	 -2.985587 	 7.604068 	 -6.199833 
H 	 -3.482315 	 -5.842817 	 -6.569487 
H 	 -6.744254 	 3.577628 	 3.601872 
H 	 -5.387822 	 4.029743 	 3.134883 
H 	 -3.258638 	 -5.411531 	 -2.557603 
H 	 -3.812787 	 -4.697266 	 -1.204332 
H 	 -5.241038 	 1.706998 	 3.153962 
H 	 -3.998335 	 0.909099 	 3.432048 
H 	 2.925606 	 -2.684497 	 -5.081124 
H 	 2.665770 	 -1.417888 	 -5.988170 
H 	 -2.710514 	 3.647198 	 3.501217 
H 	 -3.418318 	 4.866629 	 2.734503 
H 	 1.864383 	 1.745014 	 2.706422 
H 	 1.789982 	 2.286505 	 4.200900 
H 	 6.232190 	 3.263098 	 5.176151 
H 	 7.259426 	 4.336537 	 5.796169 
H 	 0.834776 	 -2.719458 	 -1.209364 
H 	 -0.224087 	 -1.716273 	 -0.818955 
H 	 5.928476 	 -1.908830 	 3.033631 
H 	 7.271026 	 -2.062713 	 3.794927 
H 	 2.810026 	 -4.609452 	 1.796826 
H 	 1.976045 	 -5.847001 	 1.714041 
H 	 -4.893457 	 6.526401 	 -0.326629 
H 	 -6.027872 	 5.722602 	 -0.806815 
H 	 -2.278237 	 6.270518 	 -4.539317 
H 	 -3.626283 	 5.418316 	 -4.086359 
H 	 -0.385453 	 5.107912 	 -2.173283 
H 	 0.752832 	 5.610596 	 -3.212549 
H 	 -2.603865 	 -0.402663 	 -4.247241 
H 	 -2.262815 	 0.284483 	 -2.902004 
H 	 1.005100 	 2.936004 	 -2.423567 
H 	 1.215087 	 1.333538 	 -2.654129 
H 	 7.381702 	 -6.147957 	 -4.501190 
H 	 6.093533 	 -5.751633 	 -5.162551 
H 	 -5.877487 	 -1.880719 	 7.122071 
H 	 -5.927364 	 -1.959354 	 -6.176313 
H 	 1.348228 	 -6.698865 	 5.573734 
H 	 0.931863 	 -6.507048 	 7.069911 
H 	 0.759586 	 -2.873517 	 2.755005 
H 	 -0.265288 	 -1.866090 	 2.095503 
H 	 -1.497691 	 0.575317 	 1.041421 
H 	 -2.328646 	 -0.347519 	 2.043375 
H 	 0.912743 	 -0.814545 	 -3.366392 
H 	 -0.451491 	 -0.288396 	 -3.962056 
H 	 7.199522 	 0.836614 	 -1.171083 
H 	 7.141895 	 1.212957 	 0.363675 
H 	 -7.427937 	 6.412101 	 -3.371339 
H 	 7.084252 	 6.978752 	 -2.065125 
H 	 3.867403 	 -2.268738 	 1.904937 
H 	 4.659397 	 -3.180984 	 1.021829 
H 	 6.986512 	 5.798481 	 3.950449 
H 	 6.277049 	 7.164861 	 4.138218 
H 	 5.641321 	 -3.719288 	 -1.862730 
H 	 5.292257 	 -4.681973 	 -3.017080 
H 	 -7.084786 	 3.129987 	 -0.306784 
H 	 -6.555297 	 3.815589 	 0.973197 
H 	 -5.910359 	 -6.676005 	 7.578230 
H 	 -7.391918 	 -6.349956 	 -7.192634 
H 	 4.068934 	 -6.847088 	 -5.515885 
H 	 3.420458 	 -5.450200 	 -5.534186 
H 	 -5.306049 	 7.602219 	 -3.186682 
H 	 -5.012779 	 -6.827079 	 -4.761608 
H 	 0.075096 	 -5.825446 	 -2.526693 
H 	 1.361719 	 -6.563783 	 -2.437821 
H 	 0.234535 	 5.677347 	 4.248976 
H 	 0.248191 	 5.364160 	 2.741793 
H 	 4.630031 	 4.245086 	 0.973368 
H 	 3.642327 	 2.983438 	 0.869085 
H 	 -0.736862 	 1.004517 	 -0.992948 
H 	 0.482413 	 0.534391 	 -0.153539 
H 	 4.022333 	 6.405336 	 5.076865 
H 	 4.616019 	 5.037106 	 5.272801 
H 	 -4.789005 	 1.806478 	 5.491474 
H 	 -4.463675 	 0.955688 	 6.507935 
H 	 6.733100 	 -2.396330 	 0.859994 
H 	 6.183006 	 -2.165317 	 -0.598404 
H 	 0.136916 	 3.295785 	 2.436610 
H 	 -0.744506 	 3.738540 	 1.217944 
H 	 2.202899 	 -4.615491 	 -3.578476 
H 	 1.075111 	 -3.975145 	 -4.571657 
H 	 -6.178913 	 -0.322156 	 0.290153 
H 	 -5.022082 	 -0.955412 	 -0.426072 
H 	 -3.630671 	 1.230451 	 1.046476 
H 	 -4.979438 	 1.271624 	 0.426691 
H 	 0.049826 	 6.925713 	 -4.749628 
H 	 -1.326558 	 6.559186 	 -6.270335 
H 	 -5.266701 	 3.650126 	 -5.352279 
H 	 -5.205005 	 4.948933 	 -6.181603 
H 	 -2.957014 	 -3.349030 	 -7.304532 
H 	 -4.436908 	 -3.443959 	 -6.996830 
H 	 2.787337 	 0.385491 	 -0.103985 
H 	 2.018244 	 1.765478 	 -0.493852 
H 	 4.040884 	 5.728981 	 -4.197926 
H 	 5.287716 	 6.184264 	 -3.499379 
H 	 2.579010 	 2.636392 	 -4.900309 
H 	 1.325940 	 1.582495 	 -4.748602 
H 	 0.609106 	 7.314352 	 0.428010 
H 	 0.599249 	 -6.160119 	 -0.317268 
H 	 4.823120 	 -0.158231 	 3.182640 
H 	 3.568567 	 -0.865060 	 3.709671 
H 	 -7.010684 	 -4.569346 	 -2.290998 
H 	 -5.574485 	 -5.285570 	 -1.970399 
H 	 2.691969 	 -1.978509 	 -2.561690 
H 	 3.134112 	 -0.834859 	 -3.504748 
H 	 2.185523 	 -4.238278 	 -1.292323 
H 	 2.908121 	 -3.266383 	 -0.311089 
H 	 1.462881 	 5.501256 	 -0.884050 
H 	 0.980087 	 4.901978 	 0.442827 
H 	 -1.278856 	 1.628762 	 6.807539 
H 	 -0.971200 	 0.257325 	 6.187754 
H 	 2.381229 	 4.259504 	 5.218136 
H 	 1.457489 	 3.564763 	 6.133815 
H 	 6.118123 	 -0.912075 	 -2.557543 
H 	 4.832591 	 -0.632304 	 -1.679316 
H 	 -2.234475 	 2.477334 	 -1.297726 
H 	 -1.714473 	 2.431753 	 -2.700866 
H 	 -2.982745 	 -1.581749 	 -1.974879 
H 	 -2.898392 	 -2.549087 	 -0.692934 
H 	 -1.947745 	 5.149761 	 6.314748 
H 	 -0.406093 	 5.110178 	 6.716805 
H 	 -0.194146 	 -1.487310 	 7.148337 
H 	 -0.791687 	 -2.531555 	 6.139416 
H 	 -5.459828 	 5.159581 	 6.399820 
H 	 -6.723573 	 6.196461 	 6.372761 
H 	 -6.656534 	 -0.994742 	 -1.867755 
H 	 -5.747586 	 -2.187683 	 -2.287788 
H 	 -2.171754 	 -6.301839 	 -4.277516 
H 	 -1.595490 	 -4.877311 	 -4.119700 
H 	 -3.680765 	 -0.927803 	 -6.345044 
H 	 -3.012424 	 0.539515 	 -6.145039 
H 	 5.871008 	 1.950764 	 1.901521 
H 	 7.265327 	 1.692236 	 2.515531 
H 	 -3.426018 	 7.056096 	 1.539147 
H 	 -4.754627 	 6.778041 	 2.144390 
H 	 2.484925 	 -4.576096 	 3.896274 
H 	 2.192288 	 -4.001847 	 5.380362 
H 	 -2.911322 	 -6.952850 	 5.197443 
H 	 -4.102779 	 -6.721591 	 6.193275 
H 	 -2.786682 	 -4.451136 	 5.028631 
H 	 -4.136958 	 -4.756796 	 4.333607 
H 	 3.630926 	 5.715154 	 -6.775540 
H 	 2.608257 	 6.764876 	 7.520137 
H 	 3.792029 	 -6.913799 	 -2.980487 
H 	 4.101661 	 -6.176373 	 -1.548031 
H 	 -6.723580 	 1.360028 	 7.133017 
H 	 -7.141826 	 0.568333 	 -6.654877 
H 	 -0.440135 	 -4.671537 	 6.969555 
H 	 -0.342168 	 -5.412250 	 5.577091 
H 	 -2.123238 	 4.361986 	 -3.981659 
H 	 -0.762311 	 3.622347 	 -4.284302 
H 	 6.841222 	 5.572580 	 0.344072 
H 	 5.913487 	 6.177608 	 1.419995 
H 	 -3.776070 	 4.559233 	 5.150001 
H 	 -3.890984 	 3.774159 	 6.562478 
H 	 -2.777946 	 -2.879468 	 2.006660 
H 	 -2.487956 	 -2.440688 	 3.470001 
H 	 -6.361799 	 7.283804 	 3.156552 
H 	 -5.072017 	 -7.182362 	 3.883833 
H 	 6.521507 	 5.002019 	 -6.715167 
H 	 5.596608 	 3.799813 	 -7.150089 
H 	 1.800136 	 -0.121577 	 4.247701 
H 	 1.634241 	 -1.601560 	 4.249808 
H 	 4.665407 	 3.702915 	 -3.783906 
H 	 4.694239 	 3.928311 	 -5.371426 
H 	 5.026134 	 0.602699 	 -5.298319 
H 	 5.240281 	 -0.794366 	 -4.676279 
H 	 6.285501 	 4.340482 	 -2.254057 
H 	 5.333602 	 3.625631 	 -1.275903 
H 	 0.840839 	 -5.496198 	 -5.787044 
H 	 -0.532134 	 -6.197383 	 -5.788126 
H 	 3.427268 	 1.597366 	 -6.623159 
H 	 4.642735 	 1.611095 	 7.231163 
H 	 3.908849 	 -6.277484 	 3.777179 
H 	 4.683265 	 -5.971744 	 5.127572 
H 	 -2.764167 	 -5.004505 	 0.891720 
H 	 -4.017107 	 -4.171981 	 0.978348 
H 	 -6.870557 	 2.307580 	 -4.287778 
H 	 -7.308566 	 2.701969 	 -5.781924 
H 	 4.817690 	 -5.475056 	 7.507881 
H 	 5.361284 	 -4.298891 	 6.544349 
H 	 2.062935 	 -0.192411 	 7.006555 
H 	 1.232072 	 0.265217 	 -6.691835 
H 	 5.037728 	 1.183952 	 5.014155 
H 	 3.980786 	 1.943872 	 4.263520 
H 	 1.656855 	 4.780061 	 -6.921657 
H 	 1.060743 	 3.363853 	 -6.494292 
H 	 -3.389947 	 3.396704 	 0.458773 
H 	 -2.581856 	 4.661146 	 -0.132494 
H 	 -1.580710 	 1.777259 	 3.041653 
H 	 -1.057925 	 2.095890 	 4.459271 
H 	 -2.061330 	 -6.210360 	 3.133152 
H 	 -1.079016 	 -6.330382 	 1.866402 
H 	 -2.595947 	 -1.266351 	 6.085453 
H 	 -2.864360 	 -1.136082 	 4.605564 
H 	 -0.885926 	 7.220255 	 5.513042 
H 	 -0.635091 	 7.471920 	 3.985201 
H 	 -3.571240 	 2.891060 	 -6.616562 
H 	 -2.358113 	 2.835390 	 -5.584743 
H 	 1.704207 	 6.876609 	 -4.841789 
H 	 -2.372271 	 6.302220 	 -1.965753 
H 	 -5.496706 	 -1.283921 	 4.762437 
H 	 -6.222847 	 -2.675086 	 5.006317 
H 	 5.445476 	 -0.957783 	 6.594946 
H 	 4.260375 	 -1.200488 	 5.607295 
H 	 3.693454 	 5.618935 	 2.716036 
H 	 2.906363 	 5.792444 	 1.298923 
H 	 -0.496776 	 -2.519783 	 -3.501614 
H 	 -0.673598 	 -2.394246 	 -5.060941 
H 	 -1.430685 	 6.847337 	 -0.811488 
O 	 -7.117865 	 -2.754527 	 -4.951667 
O 	 4.687606 	 -6.467470 	 -0.143569 
O 	 -5.415520 	 -3.593171 	 1.866110 
O 	 5.811242 	 -2.686896 	 -6.871783 
O 	 -6.171635 	 -4.490553 	 4.884740 
O 	 6.750966 	 -5.119434 	 2.892779 
O 	 -3.802208 	 -6.764535 	 -6.537554 
O 	 -6.145812 	 3.531665 	 2.830737 
O 	 -3.924151 	 -5.423674 	 -1.801604 
O 	 -4.877760 	 1.068901 	 3.820569 
O 	 3.353375 	 -1.950309 	 -5.535284 
O 	 -3.481933 	 4.305532 	 3.519141 
O 	 2.129588 	 1.518487 	 3.594010 
O 	 6.825882 	 4.007505 	 4.987013 
O 	 -0.109417 	 -2.559157 	 -1.345498 
O 	 6.729959 	 -2.439723 	 3.047830 
O 	 2.671536 	 -5.478432 	 2.246228 
O 	 -5.621173 	 6.605279 	 -1.009075 
O 	 -2.784897 	 5.743810 	 -3.717949 
O 	 0.512958 	 4.878585 	 -2.478213 
O 	 -2.261424 	 -0.597569 	 -3.348534 
O 	 1.676899 	 2.177773 	 -2.459641 
O 	 7.087641 	 -5.707552 	 -5.285262 
O 	 -5.475530 	 -1.555396 	 -6.933686 
O 	 1.629004 	 -6.890139 	 6.474463 
O 	 0.613039 	 -1.953661 	 2.468080 
O 	 -2.108950 	 0.603142 	 1.822362 
O 	 0.503784 	 -0.332559 	 -4.122635 
O 	 -7.121929 	 1.061184 	 -0.432407 
O 	 6.813002 	 6.265485 	 -2.677958 
O 	 3.752474 	 -3.114004 	 1.382714 
O 	 7.198474 	 6.746029 	 4.106227 
O 	 5.868345 	 -3.911694 	 -2.784087 
O 	 -6.811526 	 3.979912 	 0.069438 
O 	 -6.672357 	 -6.524073 	 7.014832 
O 	 4.214738 	 -5.964089 	 -5.714000 
O 	 -5.679671 	 -7.194879 	 -4.122266 
O 	 0.876876 	 -5.875376 	 -1.957935 
O 	 0.633967 	 5.997360 	 3.432212 
O 	 4.596747 	 3.251764 	 0.906529 
O 	 -0.430309 	 0.267322 	 -0.391589 
O 	 3.838047 	 5.459092 	 4.936693 
O 	 -4.834984 	 1.837306 	 6.455948 
O 	 6.297867 	 -2.846062 	 0.103691 
O 	 0.182863 	 3.783817 	 1.555408 
O 	 1.918717 	 -4.483347 	 -4.462440 
O 	 -5.366045 	 -0.834804 	 0.476754 
O 	 -4.328160 	 1.895765 	 0.788522 
O 	 -1.476341 	 7.025275 	 -5.424817 
O 	 -4.662453 	 4.398156 	 -5.617372 
O 	 -3.660395 	 -4.020211 	 -7.198396 
O 	 2.369360 	 1.237395 	 0.265831 
O 	 4.532222 	 6.524598 	 -4.096643 
O 	 1.879279 	 2.136161 	 -5.361090 
O 	 0.422995 	 -6.621641 	 0.603902 
O 	 4.280561 	 -0.913353 	 3.025246 
O 	 -6.537757 	 -5.128997 	 -1.722672 
O 	 2.735882 	 -1.001558 	 -2.618832 
O 	 2.626334 	 -3.385536 	 -1.241028 
O 	 1.497949 	 5.673899 	 0.074118 
O 	 -0.827423 	 1.207565 	 6.057175 
O 	 1.708580 	 3.541149 	 5.183524 
O 	 5.807686 	 -0.560405 	 -1.709559 
O 	 -1.964235 	 1.839382 	 -1.961533 
O 	 -3.513884 	 -2.019635 	 -1.287283 
O 	 -1.152189 	 5.734209 	 6.534162 
O 	 -1.023950 	 -1.885510 	 6.813555 
O 	 -6.407336 	 5.283604 	 6.602648 
O 	 -6.339199 	 -1.502166 	 -2.671174 
O 	 -1.911253 	 -5.644459 	 -3.583230 
O 	 -2.885378 	 -0.428043 	 -6.011585 
O 	 6.570642 	 1.229120 	 1.935915 
O 	 -4.075003 	 6.312692 	 1.539533 
O 	 2.465089 	 -3.770917 	 4.468623 
O 	 -3.862980 	 -6.784692 	 5.225469 
O 	 -3.376708 	 -4.125642 	 4.329383 
O 	 2.747924 	 6.079415 	 -6.666530 
O 	 3.829857 	 -6.006512 	 -2.544630 
O 	 7.430612 	 1.396240 	 -7.152932 
O 	 -0.376444 	 -4.487591 	 5.972331 
O 	 -1.731632 	 3.447828 	 -4.235327 
O 	 6.336065 	 6.395456 	 0.589956 
O 	 -3.678707 	 4.647331 	 6.152814 
O 	 -2.636392 	 -2.100830 	 2.577795 
O 	 -5.559037 	 -7.054297 	 3.088708 
O 	 5.554858 	 4.767416 	 -6.975656 
O 	 2.141433 	 -0.927477 	 4.700791 
O 	 4.117694 	 3.761029 	 -4.607813 
O 	 5.593020 	 0.132624 	 -4.623592 
O 	 5.686693 	 3.577717 	 -2.158940 
O 	 0.042242 	 -5.637209 	 -6.336674 
O 	 4.341154 	 1.881047 	 -6.776209 
O 	 4.658560 	 -6.566821 	 4.334157 
O 	 -3.180234 	 -4.151356 	 0.570666 
O 	 -6.883343 	 3.064612 	 -4.917198 
O 	 5.193231 	 -5.234422 	 6.596682 
O 	 1.586020 	 -0.591628 	 -7.104232 
O 	 4.906244 	 2.047991 	 4.581797 
O 	 0.976810 	 4.079341 	 -7.148627 
O 	 -2.496365 	 3.749333 	 0.184224 
O 	 -1.353856 	 2.548899 	 3.653296 
O 	 -2.056910 	 -6.272329 	 2.165720 
O 	 -3.237101 	 -1.000215 	 5.457114 
O 	 -1.002755 	 -7.001190 	 4.781288 
O 	 -2.916922 	 2.277994 	 -6.238087 
O 	 0.946098 	 6.912016 	 -4.232385 
O 	 -6.360404 	 -1.695282 	 4.955678 
O 	 4.886357 	 -0.553859 	 5.911115 
O 	 3.772201 	 5.760560 	 1.731207 
O 	 -0.529704 	 -3.030871 	 -4.328262 
O 	 -1.780088 	 6.044716 	 -1.193087 
K 	 -6.943428 	 -6.104469 	 0.577961 
