333
conformation = 57
H 	 -7.143675 	 -3.729802 	 -5.060056 
H 	 -6.972522 	 -2.431222 	 -4.125212 
H 	 4.252772 	 -6.689824 	 0.631771 
H 	 5.394438 	 -7.289789 	 -0.208595 
H 	 -5.438007 	 -3.799712 	 2.449279 
H 	 -5.404127 	 -2.601836 	 1.344435 
H 	 4.954639 	 -2.611955 	 -6.616543 
H 	 6.430624 	 -2.943091 	 -6.410137 
H 	 -6.287495 	 -5.031919 	 5.648870 
H 	 -6.777737 	 -4.843032 	 4.157858 
H 	 6.100849 	 -5.613449 	 3.195546 
H 	 6.698526 	 -4.138326 	 2.832430 
H 	 -2.914950 	 -7.239784 	 -6.211265 
H 	 -3.782858 	 -5.974707 	 -6.670468 
H 	 -6.584803 	 3.824169 	 3.510472 
H 	 -5.129654 	 3.637177 	 3.055221 
H 	 -3.173516 	 -5.585948 	 -2.535627 
H 	 -3.468722 	 -5.165308 	 -1.045488 
H 	 -5.180443 	 1.918193 	 3.128889 
H 	 -3.996061 	 1.030149 	 3.208647 
H 	 2.929441 	 -3.026622 	 -5.336640 
H 	 2.832029 	 -1.658369 	 -6.235255 
H 	 -2.583557 	 3.729510 	 3.167432 
H 	 -3.378230 	 4.993033 	 2.677691 
H 	 1.987719 	 1.564971 	 2.545436 
H 	 1.866889 	 2.218966 	 3.968781 
H 	 6.419946 	 3.314078 	 5.031750 
H 	 -7.385189 	 4.349888 	 5.563049 
H 	 0.800294 	 -2.741542 	 -1.464525 
H 	 -0.181139 	 -1.541057 	 -1.427864 
H 	 5.952772 	 -1.968803 	 3.370632 
H 	 -7.403063 	 -2.009617 	 3.507251 
H 	 3.239930 	 -4.830498 	 1.754151 
H 	 1.898814 	 -5.729994 	 1.695804 
H 	 -4.682490 	 6.854551 	 -0.668407 
H 	 -5.508288 	 5.678855 	 -0.956942 
H 	 -2.188084 	 6.265730 	 -4.345132 
H 	 -3.596329 	 5.621198 	 -4.052543 
H 	 -0.047347 	 5.262941 	 -2.174193 
H 	 1.105776 	 5.441143 	 -3.186906 
H 	 -2.631097 	 -0.679239 	 -4.239889 
H 	 -2.713658 	 0.004174 	 -2.793278 
H 	 1.411384 	 3.030313 	 -2.436830 
H 	 1.103645 	 1.557125 	 -2.719699 
H 	 -7.314824 	 -6.487264 	 -4.798475 
H 	 6.276234 	 -5.810859 	 -5.245372 
H 	 -5.879186 	 -1.383269 	 7.241981 
H 	 -5.979406 	 -2.012132 	 -6.179200 
H 	 1.210067 	 7.530920 	 5.545131 
H 	 1.300057 	 -6.577392 	 6.907252 
H 	 0.569528 	 -2.908196 	 2.905731 
H 	 -0.333078 	 -1.872756 	 2.127598 
H 	 -1.258935 	 0.528677 	 1.033053 
H 	 -2.256742 	 -0.271051 	 2.066050 
H 	 1.198503 	 -0.806685 	 -3.643642 
H 	 -0.384210 	 -0.510981 	 -3.742059 
H 	 6.978816 	 0.658174 	 -1.073654 
H 	 7.417320 	 0.889466 	 0.374132 
H 	 -7.161366 	 6.147981 	 -3.442520 
H 	 7.188295 	 6.827177 	 -2.264116 
H 	 3.891322 	 -2.384176 	 1.847254 
H 	 4.886663 	 -3.119877 	 0.866770 
H 	 6.929460 	 5.851538 	 4.377411 
H 	 6.538044 	 7.356291 	 4.280733 
H 	 5.907951 	 -4.032125 	 -1.918864 
H 	 5.062254 	 -4.777277 	 -2.978363 
H 	 -7.254742 	 3.122500 	 -0.504773 
H 	 -6.550640 	 3.536756 	 0.815793 
H 	 -5.542146 	 -6.772572 	 7.249129 
H 	 -6.926331 	 -6.072640 	 -7.283524 
H 	 4.408291 	 -6.830568 	 -5.227235 
H 	 3.583941 	 -5.393124 	 -5.401641 
H 	 -5.030967 	 7.450442 	 -3.473010 
H 	 -5.044726 	 -7.169601 	 -5.037599 
H 	 0.162353 	 -5.512288 	 -2.380827 
H 	 1.166320 	 -6.601312 	 -2.772055 
H 	 1.148724 	 5.269258 	 3.860872 
H 	 0.416923 	 5.676936 	 2.491645 
H 	 4.216142 	 3.657210 	 1.448806 
H 	 3.931106 	 2.335608 	 0.678290 
H 	 -0.458464 	 0.769979 	 -1.044502 
H 	 0.679194 	 0.557481 	 -0.043022 
H 	 4.153333 	 6.199740 	 4.722854 
H 	 4.920025 	 4.851191 	 4.992024 
H 	 -4.834323 	 1.080752 	 5.494308 
H 	 -4.200644 	 0.970529 	 6.886517 
H 	 6.833918 	 -2.641981 	 0.992475 
H 	 6.580738 	 -1.929333 	 -0.348988 
H 	 -0.194851 	 3.375981 	 2.187218 
H 	 -0.706603 	 3.745182 	 0.755447 
H 	 2.256798 	 -5.143275 	 -3.895648 
H 	 1.220136 	 -4.009885 	 -4.382017 
H 	 -5.753624 	 -0.519651 	 -0.291184 
H 	 -4.439500 	 -1.193035 	 0.116873 
H 	 -3.631484 	 1.120707 	 0.963256 
H 	 -4.955270 	 1.603904 	 0.278544 
H 	 0.152610 	 6.834423 	 -4.881740 
H 	 -1.359373 	 6.493762 	 -6.344724 
H 	 -5.447284 	 4.287016 	 -5.316588 
H 	 -4.574506 	 5.047974 	 -6.364447 
H 	 -2.800796 	 -3.448958 	 -7.350926 
H 	 -4.303472 	 -3.235948 	 7.452807 
H 	 3.133887 	 0.505680 	 0.216332 
H 	 2.591025 	 1.405860 	 -0.866847 
H 	 4.295306 	 5.406949 	 -4.367748 
H 	 5.342760 	 6.432727 	 -3.824680 
H 	 2.770640 	 2.538597 	 -4.911716 
H 	 1.722694 	 1.311845 	 -4.954851 
H 	 1.128347 	 7.359661 	 0.455143 
H 	 0.637645 	 -6.342932 	 -0.267773 
H 	 4.620316 	 -0.138124 	 2.540906 
H 	 3.743694 	 -1.016838 	 3.567724 
H 	 -7.154555 	 -4.596909 	 -2.411049 
H 	 -5.626829 	 -5.110502 	 -2.103226 
H 	 2.867769 	 -1.876444 	 -2.187836 
H 	 3.172112 	 -1.179088 	 -3.553981 
H 	 2.859126 	 -4.349051 	 -1.622775 
H 	 3.037024 	 -3.309504 	 -0.419126 
H 	 1.496284 	 5.309301 	 -0.911966 
H 	 1.219339 	 5.071132 	 0.618297 
H 	 -1.182862 	 1.700887 	 6.827576 
H 	 -1.372023 	 0.548843 	 6.014163 
H 	 2.593551 	 4.078996 	 5.086694 
H 	 1.532738 	 3.462118 	 6.048620 
H 	 5.801779 	 -0.357191 	 -2.614852 
H 	 4.858692 	 -0.565267 	 -1.523458 
H 	 -2.279034 	 2.463750 	 -1.230673 
H 	 -1.976826 	 2.449117 	 -2.855103 
H 	 -2.868670 	 -1.933961 	 -1.982086 
H 	 -2.902496 	 -2.854995 	 -0.723386 
H 	 -1.916701 	 5.326856 	 6.482797 
H 	 -0.441914 	 4.873890 	 6.825343 
H 	 -0.298508 	 -1.505648 	 7.251065 
H 	 -0.555046 	 -2.904086 	 6.435525 
H 	 -5.468124 	 5.230883 	 6.248291 
H 	 -6.520585 	 6.401872 	 6.396300 
H 	 -6.593977 	 -1.030232 	 -1.956439 
H 	 -5.359391 	 -1.905744 	 -2.302065 
H 	 -1.381776 	 -6.390500 	 -4.366888 
H 	 -1.487040 	 -4.905733 	 -4.296772 
H 	 -3.616094 	 -0.796423 	 -6.429207 
H 	 -2.841291 	 0.490926 	 -6.119885 
H 	 6.012103 	 1.952883 	 1.572723 
H 	 7.240286 	 1.458984 	 2.489104 
H 	 -2.965076 	 6.697576 	 1.589492 
H 	 -4.443524 	 6.758244 	 2.143194 
H 	 2.402117 	 -4.499716 	 3.771180 
H 	 1.887058 	 -4.017105 	 5.200921 
H 	 -2.846016 	 -6.890569 	 4.891151 
H 	 -3.781060 	 -6.750725 	 6.149744 
H 	 -2.776307 	 -4.127548 	 5.066032 
H 	 -4.234680 	 -4.254764 	 4.493349 
H 	 3.776425 	 5.768999 	 -7.031939 
H 	 2.577684 	 6.557157 	 7.272171 
H 	 3.968495 	 -6.788965 	 -3.119993 
H 	 4.014228 	 -6.279461 	 -1.702819 
H 	 -6.576799 	 1.236503 	 7.364898 
H 	 7.290592 	 0.535071 	 -6.636839 
H 	 -0.260009 	 -5.059706 	 6.612952 
H 	 -0.646106 	 -4.995044 	 5.117193 
H 	 -2.054474 	 4.232708 	 -4.085201 
H 	 -0.577286 	 3.655422 	 -4.110520 
H 	 7.034566 	 5.375168 	 0.225045 
H 	 5.748872 	 5.857370 	 0.878410 
H 	 -3.518612 	 4.726801 	 4.977056 
H 	 -3.750399 	 3.601650 	 6.067912 
H 	 -2.372796 	 -2.548082 	 1.577927 
H 	 -3.143191 	 -2.860222 	 2.960801 
H 	 -6.140465 	 7.451927 	 3.545595 
H 	 -4.684563 	 -6.651050 	 3.562729 
H 	 6.545519 	 5.008791 	 7.425882 
H 	 5.529371 	 3.856667 	 -7.232900 
H 	 2.025253 	 -0.003753 	 4.254166 
H 	 1.712639 	 -1.493142 	 4.302518 
H 	 4.598437 	 3.398610 	 -3.653612 
H 	 5.027730 	 3.862532 	 -5.213992 
H 	 5.253775 	 1.010623 	 -5.296999 
H 	 5.427965 	 -0.468312 	 -5.392326 
H 	 6.023343 	 4.411593 	 -2.300259 
H 	 5.060402 	 3.360669 	 -1.511473 
H 	 0.784824 	 -5.422763 	 -5.753708 
H 	 -0.246810 	 -6.615698 	 -6.131976 
H 	 3.368408 	 2.102388 	 -6.588259 
H 	 4.427491 	 1.242214 	 -7.289900 
H 	 4.102159 	 -6.304521 	 3.770914 
H 	 4.878346 	 -5.944787 	 5.057417 
H 	 -2.646476 	 -4.933705 	 1.076805 
H 	 -3.826038 	 -4.042217 	 0.723903 
H 	 -7.072871 	 2.372346 	 -4.268091 
H 	 -6.970260 	 2.543189 	 -5.760551 
H 	 4.832921 	 -5.819022 	 7.129989 
H 	 5.456795 	 -4.337319 	 6.889460 
H 	 1.547520 	 -0.645243 	 6.621995 
H 	 1.521805 	 0.349142 	 -7.171426 
H 	 5.079857 	 1.175389 	 5.006963 
H 	 4.157039 	 2.034620 	 4.114922 
H 	 1.736155 	 4.616518 	 -7.035838 
H 	 1.305100 	 3.221244 	 -6.572937 
H 	 -3.286655 	 3.257727 	 0.450723 
H 	 -2.665176 	 4.525339 	 -0.281959 
H 	 -1.442156 	 1.711507 	 3.086429 
H 	 -1.053000 	 2.144773 	 4.538926 
H 	 -1.985039 	 -5.831940 	 3.016502 
H 	 -1.158997 	 -6.464682 	 1.798487 
H 	 -2.333685 	 -1.519597 	 6.071102 
H 	 -2.898397 	 -0.983981 	 4.644529 
H 	 -1.069892 	 7.042448 	 5.432657 
H 	 -0.541184 	 7.174778 	 4.061097 
H 	 -3.497392 	 2.655069 	 -6.277654 
H 	 -2.182420 	 2.379228 	 -5.652522 
H 	 1.712725 	 6.897838 	 -5.318317 
H 	 -2.222351 	 6.067077 	 -2.052191 
H 	 -5.403061 	 -1.213735 	 4.827489 
H 	 -5.928962 	 -2.726269 	 4.865357 
H 	 5.239825 	 -1.578534 	 6.359836 
H 	 4.076480 	 -0.891048 	 5.559160 
H 	 3.191623 	 5.832105 	 2.332176 
H 	 3.265794 	 5.805983 	 0.801828 
H 	 -0.449154 	 -2.802469 	 -3.518671 
H 	 -0.357822 	 -2.258593 	 -5.089818 
H 	 -1.827208 	 7.005640 	 -0.875068 
O 	 -7.032753 	 -2.754335 	 -5.057193 
O 	 4.844153 	 -6.438379 	 -0.114810 
O 	 -5.244038 	 -3.577269 	 1.520047 
O 	 5.770147 	 -2.777782 	 -7.123880 
O 	 -6.170531 	 -4.452428 	 4.848368 
O 	 6.816764 	 -5.132353 	 2.799317 
O 	 -3.812524 	 -6.958433 	 -6.567132 
O 	 -6.067474 	 3.400696 	 2.766622 
O 	 -3.896965 	 -5.490678 	 -1.904026 
O 	 -4.852822 	 1.135237 	 3.626490 
O 	 3.375398 	 -2.173487 	 -5.591184 
O 	 -3.402789 	 4.236432 	 3.366094 
O 	 2.315896 	 1.494908 	 3.448249 
O 	 6.925439 	 4.155209 	 4.769804 
O 	 -0.147737 	 -2.481192 	 -1.631463 
O 	 6.748312 	 -2.378543 	 2.962217 
O 	 2.773632 	 -5.596788 	 2.216506 
O 	 -5.474238 	 6.624843 	 -1.160144 
O 	 -2.719663 	 5.652073 	 -3.662538 
O 	 0.786050 	 4.833769 	 -2.507597 
O 	 -2.289412 	 -0.736562 	 -3.291137 
O 	 1.744644 	 2.134562 	 -2.359363 
O 	 7.243183 	 -5.740770 	 -5.322227 
O 	 -5.351486 	 -1.685945 	 -6.912729 
O 	 1.826120 	 -6.965915 	 6.199173 
O 	 0.600362 	 -2.059498 	 2.355983 
O 	 -2.000032 	 0.588194 	 1.690494 
O 	 0.491198 	 -0.426898 	 -4.215497 
O 	 -7.108879 	 0.892056 	 -0.546294 
O 	 6.862619 	 6.278704 	 -2.987391 
O 	 3.957651 	 -3.150276 	 1.267080 
O 	 7.240390 	 6.698734 	 4.041545 
O 	 5.732971 	 -4.066226 	 -2.885198 
O 	 -6.820253 	 3.914043 	 -0.107290 
O 	 -6.431880 	 -6.487694 	 6.891010 
O 	 4.310147 	 -5.965805 	 -5.793291 
O 	 -5.590535 	 -7.209393 	 -4.225804 
O 	 1.082585 	 -5.793390 	 -2.228316 
O 	 0.612636 	 5.990818 	 3.371070 
O 	 4.587708 	 3.032765 	 0.790288 
O 	 -0.158677 	 0.115086 	 -0.374697 
O 	 3.988833 	 5.251252 	 4.863024 
O 	 -4.764308 	 1.593098 	 6.368459 
O 	 6.431428 	 -2.769020 	 0.114303 
O 	 0.068760 	 3.805689 	 1.361008 
O 	 2.026256 	 -4.534997 	 -4.674487 
O 	 -5.309435 	 -0.854371 	 0.523466 
O 	 -4.176795 	 1.903532 	 0.734584 
O 	 -1.448040 	 6.983388 	 -5.502134 
O 	 -4.518994 	 4.361867 	 -5.667922 
O 	 -3.628569 	 -3.963559 	 -7.365839 
O 	 2.482428 	 1.196344 	 0.104936 
O 	 4.460427 	 6.420488 	 -4.215856 
O 	 2.042115 	 2.092137 	 -5.448916 
O 	 0.588524 	 -6.747217 	 0.608055 
O 	 4.477277 	 -1.042456 	 2.879197 
O 	 -6.549534 	 -5.044916 	 -1.748603 
O 	 2.688825 	 -1.045115 	 -2.697454 
O 	 2.680221 	 -3.405217 	 -1.356319 
O 	 1.684902 	 5.686569 	 0.010603 
O 	 -0.670660 	 1.258610 	 6.071963 
O 	 1.764321 	 3.549304 	 5.078414 
O 	 5.830532 	 -0.709707 	 -1.701575 
O 	 -1.874308 	 1.926554 	 -2.012631 
O 	 -3.403701 	 -2.180518 	 -1.177753 
O 	 -0.997664 	 5.620134 	 6.467130 
O 	 -0.922565 	 -2.001238 	 6.682861 
O 	 -6.387291 	 5.461564 	 6.616789 
O 	 -6.197800 	 -1.583574 	 -2.668846 
O 	 -1.670319 	 -5.708505 	 -3.729245 
O 	 -2.733283 	 -0.521532 	 -6.154483 
O 	 6.553351 	 1.191899 	 1.817537 
O 	 -3.839832 	 6.232280 	 1.492367 
O 	 2.418006 	 -3.737163 	 4.395764 
O 	 -3.797183 	 -6.785111 	 5.179173 
O 	 -3.298432 	 -4.230660 	 4.248668 
O 	 2.847068 	 5.965310 	 -6.878568 
O 	 3.894546 	 -5.981050 	 -2.603599 
O 	 7.377927 	 1.354515 	 -7.198826 
O 	 -0.375482 	 -4.479289 	 5.866629 
O 	 -1.501615 	 3.445825 	 -4.321720 
O 	 6.483736 	 6.192827 	 0.284111 
O 	 -3.727348 	 4.561040 	 5.966592 
O 	 -2.529320 	 -2.223165 	 2.514088 
O 	 -5.412445 	 -7.081460 	 2.974302 
O 	 5.742341 	 4.786201 	 -7.010018 
O 	 2.316497 	 -0.840012 	 4.761804 
O 	 4.319313 	 3.724748 	 -4.543043 
O 	 5.543279 	 0.253806 	 -4.753031 
O 	 5.675511 	 3.485034 	 -2.264237 
O 	 0.157599 	 -5.764713 	 -6.475146 
O 	 4.343907 	 2.067534 	 -6.800623 
O 	 4.845657 	 -6.594522 	 4.334397 
O 	 -2.884659 	 -4.306470 	 0.360043 
O 	 -6.800803 	 2.978863 	 -4.943827 
O 	 5.192639 	 -5.213857 	 6.490193 
O 	 1.527574 	 -0.611102 	 -7.313225 
O 	 5.042105 	 2.043780 	 4.560432 
O 	 1.088499 	 3.904018 	 -7.248002 
O 	 -2.467296 	 3.651128 	 0.079659 
O 	 -1.139971 	 2.481129 	 3.585618 
O 	 -2.008565 	 -6.302189 	 2.166173 
O 	 -3.152526 	 -1.089903 	 5.568038 
O 	 -0.955581 	 -7.161107 	 4.768811 
O 	 -2.709060 	 2.139236 	 -6.420279 
O 	 1.117503 	 6.918709 	 -4.524234 
O 	 -6.218265 	 -1.777959 	 4.858719 
O 	 4.992582 	 -0.709005 	 5.952494 
O 	 3.834392 	 5.722007 	 1.643011 
O 	 -0.367586 	 -3.036664 	 -4.477963 
O 	 -1.830652 	 6.050661 	 -1.139540 
K 	 -6.895823 	 -6.186028 	 0.498233 
