333
conformation = 23
H 	 -7.228750 	 -3.752699 	 -4.793950 
H 	 -7.150679 	 -2.281947 	 -4.159358 
H 	 4.137482 	 -6.598306 	 0.594022 
H 	 5.287251 	 -7.302904 	 -0.107199 
H 	 -5.190203 	 -3.661242 	 2.761260 
H 	 -5.665721 	 -2.717413 	 1.545883 
H 	 5.088285 	 -2.652944 	 -6.256989 
H 	 6.648953 	 -2.618521 	 -6.421222 
H 	 -6.264186 	 -5.092105 	 5.653522 
H 	 -6.855827 	 -4.906223 	 4.202981 
H 	 6.063906 	 -5.688275 	 3.329409 
H 	 6.650758 	 -4.176846 	 2.970087 
H 	 -3.074898 	 7.545025 	 -6.157163 
H 	 -3.529065 	 -5.890993 	 -6.593796 
H 	 -6.716343 	 3.499746 	 3.597599 
H 	 -5.348603 	 3.997993 	 3.139280 
H 	 -3.302137 	 -5.408511 	 -2.582551 
H 	 -3.818905 	 -4.668651 	 -1.215501 
H 	 -5.193469 	 1.685062 	 3.096810 
H 	 -3.994447 	 0.922695 	 3.368656 
H 	 2.887210 	 -2.774618 	 -5.121954 
H 	 2.689987 	 -1.431586 	 -6.045173 
H 	 -2.670818 	 3.677895 	 3.430776 
H 	 -3.404764 	 4.834847 	 2.662484 
H 	 1.846302 	 1.697966 	 2.619326 
H 	 1.876095 	 2.229171 	 4.129802 
H 	 6.228151 	 3.285411 	 5.240898 
H 	 7.317849 	 4.334998 	 5.732365 
H 	 0.848275 	 -2.812441 	 -1.345297 
H 	 -0.194055 	 -1.761522 	 -0.883038 
H 	 5.902389 	 -1.874842 	 2.969782 
H 	 7.368318 	 -2.064584 	 3.673064 
H 	 2.856296 	 -4.600033 	 1.819449 
H 	 1.925225 	 -5.948009 	 1.690477 
H 	 -4.873420 	 6.558054 	 -0.393488 
H 	 -5.927262 	 5.646537 	 -0.887979 
H 	 -2.295058 	 6.133831 	 -4.537831 
H 	 -3.661419 	 5.302741 	 -4.057101 
H 	 -0.371838 	 5.054381 	 -2.219485 
H 	 0.746624 	 5.497064 	 -3.225448 
H 	 -2.601860 	 -0.532848 	 -4.304718 
H 	 -2.241363 	 0.238735 	 -2.978767 
H 	 1.040509 	 2.870848 	 -2.481836 
H 	 1.190808 	 1.273158 	 -2.667753 
H 	 7.424596 	 -6.280833 	 -4.488930 
H 	 6.120360 	 -5.806005 	 -5.237365 
H 	 -5.883956 	 -1.951758 	 7.119170 
H 	 -5.928440 	 -2.015151 	 -6.155422 
H 	 1.343139 	 -6.825610 	 5.484037 
H 	 0.966022 	 -6.551348 	 7.052791 
H 	 0.660402 	 -2.908589 	 2.738730 
H 	 -0.278551 	 -1.928229 	 1.995120 
H 	 -1.509885 	 0.628227 	 1.013977 
H 	 -2.298375 	 -0.345968 	 1.994348 
H 	 0.899687 	 -0.798789 	 -3.383043 
H 	 -0.465442 	 -0.267199 	 -3.984976 
H 	 7.115011 	 0.819624 	 -1.187083 
H 	 7.178680 	 1.099038 	 0.319590 
H 	 -7.353836 	 6.337235 	 -3.394149 
H 	 7.070273 	 6.953754 	 -2.144760 
H 	 3.827365 	 -2.316725 	 1.930580 
H 	 4.667318 	 -3.204024 	 0.904721 
H 	 6.976850 	 5.748267 	 3.976981 
H 	 6.366229 	 7.122069 	 4.166702 
H 	 5.673762 	 -3.815341 	 -1.885060 
H 	 5.282404 	 -4.751956 	 -3.046196 
H 	 -7.183142 	 3.080766 	 -0.346883 
H 	 -6.597538 	 3.658437 	 0.946496 
H 	 -5.822936 	 -6.765308 	 7.447438 
H 	 -7.303195 	 -6.418728 	 -7.258339 
H 	 4.054875 	 -6.987666 	 -5.499976 
H 	 3.399457 	 -5.484878 	 -5.616625 
H 	 -5.270261 	 7.497220 	 -3.327345 
H 	 -5.030246 	 -6.860920 	 -4.771535 
H 	 0.063460 	 -5.787155 	 -2.544234 
H 	 1.355689 	 -6.661784 	 -2.486666 
H 	 0.317433 	 5.587578 	 4.229975 
H 	 0.285006 	 5.382772 	 2.698182 
H 	 4.616873 	 4.134703 	 0.974761 
H 	 3.653480 	 2.921545 	 0.799077 
H 	 -0.677166 	 1.016705 	 -0.979047 
H 	 0.525248 	 0.389559 	 -0.206821 
H 	 4.041216 	 6.376277 	 5.026629 
H 	 4.650906 	 4.923470 	 5.245596 
H 	 -4.734595 	 1.713169 	 5.403777 
H 	 -4.455201 	 0.840927 	 6.550085 
H 	 6.758738 	 -2.411478 	 0.824476 
H 	 6.187012 	 -2.163969 	 -0.601203 
H 	 0.113717 	 3.352033 	 2.363194 
H 	 -0.768797 	 3.744641 	 1.127795 
H 	 2.166466 	 -4.650875 	 -3.555713 
H 	 1.069882 	 -4.017646 	 -4.584007 
H 	 -6.152965 	 -0.327797 	 0.209172 
H 	 -4.984297 	 -1.026603 	 -0.417928 
H 	 -3.593093 	 1.227448 	 0.911937 
H 	 -5.048645 	 1.282876 	 0.416553 
H 	 0.076963 	 6.867830 	 -4.848247 
H 	 -1.365551 	 6.538696 	 -6.337772 
H 	 -5.278456 	 3.636326 	 -5.513733 
H 	 -5.114900 	 4.933599 	 -6.300526 
H 	 -2.968050 	 -3.381253 	 -7.354202 
H 	 -4.438489 	 -3.470011 	 -7.152377 
H 	 2.723394 	 0.380351 	 -0.144214 
H 	 2.054013 	 1.588653 	 -0.637117 
H 	 3.949689 	 5.639753 	 -4.300750 
H 	 5.214840 	 6.147948 	 -3.527468 
H 	 2.574172 	 2.562248 	 -4.888887 
H 	 1.379457 	 1.561856 	 -4.809763 
H 	 0.634746 	 7.301145 	 0.319212 
H 	 0.653437 	 -6.240175 	 -0.225835 
H 	 4.837760 	 -0.139283 	 3.105208 
H 	 3.552854 	 -0.901645 	 3.599896 
H 	 -7.011672 	 -4.532584 	 -2.380335 
H 	 -5.611483 	 -5.355437 	 -2.055873 
H 	 2.664760 	 -2.016749 	 -2.585751 
H 	 3.159214 	 -0.869527 	 -3.499019 
H 	 2.142663 	 -4.274029 	 -1.369745 
H 	 2.902058 	 -3.361586 	 -0.349875 
H 	 1.426210 	 5.449732 	 -0.956243 
H 	 1.025119 	 4.927930 	 0.454495 
H 	 -1.205727 	 1.531594 	 6.846961 
H 	 -1.052413 	 0.241936 	 6.194400 
H 	 2.413713 	 4.229563 	 5.138165 
H 	 1.386265 	 3.504296 	 6.082157 
H 	 5.994657 	 -0.944248 	 -2.650429 
H 	 4.850226 	 -0.746782 	 -1.707937 
H 	 -2.336441 	 2.456578 	 -1.319413 
H 	 -1.755373 	 2.396139 	 -2.788961 
H 	 -2.952625 	 -1.789390 	 -2.082066 
H 	 -2.948234 	 -2.563860 	 -0.683748 
H 	 -1.948679 	 5.161764 	 6.337827 
H 	 -0.406495 	 5.062274 	 6.582619 
H 	 -0.194723 	 -1.573524 	 7.147203 
H 	 -0.728192 	 -2.710204 	 6.184683 
H 	 -5.432894 	 5.177442 	 6.435238 
H 	 -6.639340 	 6.191853 	 6.364935 
H 	 -6.623386 	 -1.057334 	 -1.953434 
H 	 -5.722774 	 -2.206828 	 -2.303708 
H 	 -2.118498 	 -6.347981 	 -4.304922 
H 	 -1.631502 	 -4.948721 	 -4.185172 
H 	 -3.668477 	 -0.948318 	 -6.386576 
H 	 -3.029953 	 0.504882 	 -6.303003 
H 	 5.853143 	 1.878983 	 1.827548 
H 	 7.276169 	 1.549608 	 2.379132 
H 	 -3.366665 	 6.940694 	 1.516676 
H 	 -4.770379 	 6.780671 	 2.065833 
H 	 2.482060 	 -4.615399 	 3.913604 
H 	 2.171789 	 -4.029303 	 5.304570 
H 	 -2.895353 	 -6.939649 	 5.177618 
H 	 -4.119974 	 -6.726200 	 6.105026 
H 	 -2.772948 	 -4.456421 	 4.994300 
H 	 -4.184608 	 -4.735791 	 4.283541 
H 	 3.697166 	 5.680090 	 -6.851824 
H 	 2.574897 	 6.647900 	 7.461265 
H 	 3.652561 	 -6.908068 	 -2.989087 
H 	 4.134475 	 -6.293680 	 -1.674546 
H 	 -6.749834 	 1.273410 	 7.047414 
H 	 -7.219019 	 0.609910 	 -6.656006 
H 	 -0.463538 	 -4.707310 	 6.866641 
H 	 -0.352903 	 -5.390420 	 5.489616 
H 	 -2.149093 	 4.297741 	 -4.077971 
H 	 -0.768443 	 3.583113 	 -4.215573 
H 	 6.824952 	 5.505509 	 0.307327 
H 	 5.924706 	 6.065248 	 1.365523 
H 	 -3.765749 	 4.531308 	 5.066126 
H 	 -3.967267 	 3.750632 	 6.509072 
H 	 -2.713088 	 -2.935505 	 1.964023 
H 	 -2.576696 	 -2.503584 	 3.443105 
H 	 -6.397079 	 7.307014 	 3.169852 
H 	 -5.030442 	 -7.170035 	 3.919616 
H 	 6.476688 	 4.989637 	 -6.863031 
H 	 5.581308 	 3.780098 	 -7.183725 
H 	 1.804162 	 -0.123905 	 4.197079 
H 	 1.613086 	 -1.620829 	 4.187464 
H 	 4.563350 	 3.605198 	 -3.741792 
H 	 4.710546 	 3.912725 	 -5.396997 
H 	 5.010255 	 0.534900 	 -5.326048 
H 	 5.255502 	 -0.788537 	 -4.775036 
H 	 6.239801 	 4.317271 	 -2.343821 
H 	 5.184253 	 3.560498 	 -1.323303 
H 	 0.863398 	 -5.480170 	 -5.912643 
H 	 -0.477294 	 -6.286316 	 -5.763962 
H 	 3.406828 	 1.585944 	 -6.678217 
H 	 4.604749 	 1.557824 	 7.219688 
H 	 3.945249 	 -6.294780 	 3.734101 
H 	 4.707657 	 -6.021634 	 5.095201 
H 	 -2.787742 	 -5.000360 	 0.918919 
H 	 -4.055252 	 -4.140345 	 1.008695 
H 	 -6.934373 	 2.247162 	 -4.347834 
H 	 -7.280413 	 2.716809 	 -5.775092 
H 	 4.808806 	 -5.585544 	 7.380722 
H 	 5.305437 	 -4.293132 	 6.505149 
H 	 2.048864 	 -0.298648 	 6.952429 
H 	 1.243187 	 0.183325 	 -6.779014 
H 	 5.030303 	 1.150637 	 5.051671 
H 	 3.996633 	 1.920840 	 4.222407 
H 	 1.645375 	 4.706816 	 -6.974487 
H 	 1.138381 	 3.321411 	 -6.487136 
H 	 -3.397617 	 3.354379 	 0.303043 
H 	 -2.630583 	 4.654241 	 -0.200587 
H 	 -1.560292 	 1.751122 	 3.004230 
H 	 -1.042636 	 2.000931 	 4.444295 
H 	 -2.088283 	 -6.249410 	 3.116065 
H 	 -1.158984 	 -6.361459 	 1.773524 
H 	 -2.523704 	 -1.350527 	 6.115160 
H 	 -2.859690 	 -1.180729 	 4.532124 
H 	 -0.877069 	 7.164262 	 5.431855 
H 	 -0.683170 	 7.363088 	 3.944380 
H 	 -3.601075 	 2.847447 	 -6.614967 
H 	 -2.388783 	 2.740654 	 -5.635227 
H 	 1.707295 	 6.987017 	 -4.931153 
H 	 -2.376358 	 6.280628 	 -1.969100 
H 	 -5.506548 	 -1.308638 	 4.743142 
H 	 -6.143360 	 -2.734069 	 4.961731 
H 	 5.388955 	 -1.152160 	 6.562482 
H 	 4.192797 	 -1.229442 	 5.566712 
H 	 3.589220 	 5.612151 	 2.654934 
H 	 2.863668 	 5.716283 	 1.191035 
H 	 -0.495990 	 -2.574103 	 -3.479861 
H 	 -0.659874 	 -2.483634 	 -5.133951 
H 	 -1.478492 	 6.850837 	 -0.837632 
O 	 -7.118959 	 -2.789735 	 -4.983728 
O 	 4.688819 	 -6.493246 	 -0.179695 
O 	 -5.394662 	 -3.626385 	 1.785444 
O 	 5.795650 	 -2.744098 	 -6.932913 
O 	 -6.186999 	 -4.517949 	 4.850314 
O 	 6.749824 	 -5.158258 	 2.849357 
O 	 -3.805375 	 -6.836598 	 -6.573315 
O 	 -6.140299 	 3.476109 	 2.788837 
O 	 -3.928267 	 -5.473910 	 -1.843172 
O 	 -4.891241 	 1.041602 	 3.766340 
O 	 3.341581 	 -2.023587 	 -5.577804 
O 	 -3.482339 	 4.253244 	 3.473299 
O 	 2.143092 	 1.473885 	 3.547760 
O 	 6.826044 	 3.989937 	 4.925486 
O 	 -0.125129 	 -2.583187 	 -1.410762 
O 	 6.720778 	 -2.473862 	 3.014919 
O 	 2.672304 	 -5.528571 	 2.209187 
O 	 -5.614285 	 6.573221 	 -1.059898 
O 	 -2.774388 	 5.695184 	 -3.739241 
O 	 0.547088 	 4.838334 	 -2.511646 
O 	 -2.283094 	 -0.655777 	 -3.359603 
O 	 1.675862 	 2.139668 	 -2.478256 
O 	 7.095292 	 -5.752178 	 -5.319411 
O 	 -5.466349 	 -1.606662 	 -6.961699 
O 	 1.643217 	 -6.937123 	 6.404532 
O 	 0.603766 	 -2.004065 	 2.427144 
O 	 -2.106610 	 0.563927 	 1.774247 
O 	 0.495484 	 -0.405592 	 -4.164744 
O 	 -7.123493 	 0.992808 	 -0.473637 
O 	 6.797834 	 6.229218 	 -2.755737 
O 	 3.776484 	 -3.151871 	 1.346133 
O 	 7.198967 	 6.702080 	 4.068313 
O 	 5.834569 	 -3.975128 	 -2.829705 
O 	 -6.817523 	 3.928092 	 0.012468 
O 	 -6.657211 	 -6.551768 	 6.966574 
O 	 4.219556 	 -5.994297 	 -5.752153 
O 	 -5.676682 	 -7.230084 	 -4.168456 
O 	 0.902750 	 -5.904101 	 -2.024611 
O 	 0.621132 	 5.959285 	 3.390376 
O 	 4.580531 	 3.181074 	 0.863919 
O 	 -0.402402 	 0.207138 	 -0.421351 
O 	 3.847873 	 5.387177 	 4.898120 
O 	 -4.833819 	 1.765862 	 6.418968 
O 	 6.307061 	 -2.875710 	 0.075382 
O 	 0.163704 	 3.744957 	 1.498114 
O 	 1.928310 	 -4.540915 	 -4.526061 
O 	 -5.367445 	 -0.868926 	 0.451014 
O 	 -4.309324 	 1.850911 	 0.754124 
O 	 -1.484084 	 6.979783 	 -5.463801 
O 	 -4.656565 	 4.352411 	 -5.646669 
O 	 -3.669809 	 -4.050545 	 -7.249674 
O 	 2.382588 	 1.197874 	 0.221830 
O 	 4.534890 	 6.462551 	 -4.135863 
O 	 1.895308 	 2.092386 	 -5.406396 
O 	 0.438097 	 -6.678062 	 0.568176 
O 	 4.296134 	 -0.981967 	 2.978998 
O 	 -6.544687 	 -5.160148 	 -1.742904 
O 	 2.711324 	 -1.051703 	 -2.664524 
O 	 2.632617 	 -3.419268 	 -1.290919 
O 	 1.515922 	 5.636394 	 0.037103 
O 	 -0.816997 	 1.180788 	 6.018971 
O 	 1.708098 	 3.496523 	 5.142923 
O 	 5.810596 	 -0.611386 	 -1.729332 
O 	 -1.962510 	 1.810289 	 -1.994764 
O 	 -3.503506 	 -2.080885 	 -1.296433 
O 	 -1.139642 	 5.674432 	 6.495722 
O 	 -1.030222 	 -1.930852 	 6.762455 
O 	 -6.423064 	 5.263499 	 6.566625 
O 	 -6.331198 	 -1.552350 	 -2.701670 
O 	 -1.890168 	 -5.695201 	 -3.631621 
O 	 -2.871418 	 -0.476356 	 -6.059355 
O 	 6.562449 	 1.192369 	 1.891241 
O 	 -4.056821 	 6.261339 	 1.507798 
O 	 2.450136 	 -3.805634 	 4.426671 
O 	 -3.862652 	 -6.821202 	 5.184590 
O 	 -3.380120 	 -4.181911 	 4.291090 
O 	 2.746964 	 6.022047 	 -6.725145 
O 	 3.838001 	 -6.039111 	 -2.570331 
O 	 7.415695 	 1.345814 	 -7.182785 
O 	 -0.384831 	 -4.526110 	 5.926353 
O 	 -1.720612 	 3.415170 	 -4.286599 
O 	 6.341273 	 6.332823 	 0.514604 
O 	 -3.689516 	 4.595425 	 6.090228 
O 	 -2.639434 	 -2.157785 	 2.536983 
O 	 -5.543990 	 -7.098766 	 3.040289 
O 	 5.575598 	 4.732182 	 -7.007512 
O 	 2.158710 	 -0.958258 	 4.678939 
O 	 4.148693 	 3.720500 	 -4.636487 
O 	 5.577017 	 0.117944 	 -4.670012 
O 	 5.678883 	 3.527013 	 -2.206215 
O 	 0.047580 	 -5.693649 	 -6.377379 
O 	 4.322502 	 1.876669 	 -6.798265 
O 	 4.676345 	 -6.603266 	 4.306391 
O 	 -3.142982 	 -4.217741 	 0.494602 
O 	 -6.873516 	 3.016195 	 -4.950790 
O 	 5.183967 	 -5.269522 	 6.555315 
O 	 1.566776 	 -0.625906 	 -7.162527 
O 	 4.914420 	 2.015521 	 4.542325 
O 	 0.984556 	 4.018142 	 -7.193041 
O 	 -2.505870 	 3.692032 	 0.144437 
O 	 -1.336339 	 2.500088 	 3.617778 
O 	 -2.056162 	 -6.313453 	 2.147344 
O 	 -3.233016 	 -1.056721 	 5.444351 
O 	 -1.009291 	 -7.058565 	 4.747935 
O 	 -2.898094 	 2.222182 	 -6.281873 
O 	 0.960826 	 6.872072 	 -4.307144 
O 	 -6.355322 	 -1.746521 	 4.908064 
O 	 4.894119 	 -0.611219 	 5.879919 
O 	 3.773309 	 5.715647 	 1.683542 
O 	 -0.514245 	 -3.054159 	 -4.382692 
O 	 -1.800451 	 6.000462 	 -1.215493 
K 	 -6.947460 	 -6.156294 	 0.532378 
