333
conformation = 8
H 	 7.401268 	 -3.648450 	 -4.656773 
H 	 -6.917965 	 -2.351454 	 -4.058559 
H 	 4.029550 	 -6.289113 	 0.568478 
H 	 5.032464 	 7.477073 	 0.050460 
H 	 -5.138308 	 -3.416628 	 2.896229 
H 	 -5.498828 	 -2.684361 	 1.615498 
H 	 5.017084 	 -2.671921 	 -6.248933 
H 	 6.580073 	 -2.524628 	 -6.144803 
H 	 -6.367690 	 -5.112696 	 5.681571 
H 	 -6.879589 	 -4.729666 	 4.265346 
H 	 6.079308 	 -5.494099 	 3.578046 
H 	 6.577190 	 -4.157073 	 3.030166 
H 	 -2.953952 	 -7.195018 	 -6.330370 
H 	 -3.470028 	 -5.786513 	 -6.592056 
H 	 -6.835102 	 3.684184 	 3.599159 
H 	 -5.276021 	 3.981351 	 3.112185 
H 	 -3.190675 	 -5.406648 	 -2.421613 
H 	 -3.632183 	 -4.674850 	 -1.127214 
H 	 -5.294665 	 1.654598 	 3.270164 
H 	 -3.975352 	 0.787650 	 3.521871 
H 	 2.930933 	 -2.668992 	 -5.046897 
H 	 2.612429 	 -1.488868 	 -5.971407 
H 	 -2.826727 	 3.574057 	 3.577717 
H 	 -3.407512 	 4.920996 	 2.781813 
H 	 1.906879 	 1.730290 	 2.698994 
H 	 1.741554 	 2.230164 	 4.218100 
H 	 6.230632 	 3.177347 	 5.035956 
H 	 7.253955 	 4.236097 	 5.916052 
H 	 0.881523 	 -2.697230 	 -1.029925 
H 	 -0.346051 	 -1.730297 	 -0.844430 
H 	 5.817816 	 -2.023942 	 3.150001 
H 	 7.169211 	 -2.105313 	 3.909508 
H 	 2.906455 	 -4.601542 	 1.802900 
H 	 1.919825 	 -5.894893 	 1.743616 
H 	 -4.911682 	 6.489279 	 -0.270987 
H 	 -6.217993 	 5.796697 	 -0.800321 
H 	 -2.271014 	 6.349240 	 -4.438745 
H 	 -3.671489 	 5.569339 	 -4.214604 
H 	 -0.401481 	 5.184769 	 -2.094624 
H 	 0.696821 	 5.578432 	 -3.064831 
H 	 -2.666368 	 -0.372762 	 -4.239500 
H 	 -2.332008 	 0.231027 	 -2.788869 
H 	 1.025005 	 2.883960 	 -2.408626 
H 	 1.164076 	 1.332696 	 -2.684052 
H 	 -7.383330 	 -6.121742 	 -4.428232 
H 	 6.086132 	 -5.687203 	 -5.153541 
H 	 -5.893299 	 -1.782643 	 7.115909 
H 	 -6.041339 	 -2.015145 	 -6.222619 
H 	 1.366111 	 -6.596979 	 5.674464 
H 	 0.862340 	 -6.486178 	 7.124517 
H 	 0.834789 	 -2.854147 	 2.697787 
H 	 -0.322008 	 -1.937459 	 2.272545 
H 	 -1.501396 	 0.395561 	 1.105716 
H 	 -2.329354 	 -0.335761 	 2.072149 
H 	 0.932422 	 -0.836484 	 -3.410676 
H 	 -0.454836 	 -0.426631 	 -3.877278 
H 	 7.244648 	 0.810034 	 -1.149112 
H 	 7.166141 	 1.237482 	 0.355965 
H 	 7.387533 	 6.415177 	 -3.376663 
H 	 7.083039 	 6.937928 	 -1.906504 
H 	 3.816859 	 -2.225774 	 1.886385 
H 	 4.652181 	 -3.302667 	 1.116870 
H 	 7.020121 	 5.788537 	 3.963337 
H 	 6.334649 	 7.146991 	 4.070784 
H 	 5.594420 	 -3.682727 	 -1.847383 
H 	 5.302599 	 -4.609663 	 -2.940901 
H 	 -6.870442 	 3.097763 	 -0.255668 
H 	 -6.454857 	 3.918063 	 1.061827 
H 	 -5.997927 	 -6.611474 	 -7.144437 
H 	 -7.415812 	 -6.286159 	 -7.254269 
H 	 4.029547 	 -6.958834 	 -5.454243 
H 	 3.426633 	 -5.498577 	 -5.355511 
H 	 -5.320751 	 -7.130634 	 -3.180760 
H 	 -4.982380 	 -6.929945 	 -4.652694 
H 	 0.026168 	 -5.904077 	 -2.463383 
H 	 1.472846 	 -6.497194 	 -2.367092 
H 	 0.197063 	 5.683749 	 4.260731 
H 	 0.293189 	 5.338139 	 2.841725 
H 	 4.512422 	 4.255158 	 1.029957 
H 	 3.699590 	 3.023919 	 0.960321 
H 	 -0.911852 	 0.857336 	 -1.098600 
H 	 0.369313 	 0.666627 	 -0.060143 
H 	 3.976691 	 6.506187 	 5.103941 
H 	 4.648872 	 5.088640 	 5.297047 
H 	 -4.964985 	 1.980823 	 5.481723 
H 	 -4.403838 	 0.990415 	 6.597236 
H 	 6.723002 	 -2.449938 	 0.903593 
H 	 6.201847 	 -2.147069 	 -0.541790 
H 	 0.143050 	 3.203016 	 2.400767 
H 	 -0.730180 	 3.639359 	 1.311644 
H 	 2.207356 	 -4.656419 	 -3.480430 
H 	 1.054639 	 -3.925324 	 -4.340150 
H 	 -6.215201 	 -0.379189 	 0.414633 
H 	 -4.945952 	 -0.999066 	 -0.355689 
H 	 -3.690854 	 1.322403 	 1.251310 
H 	 -4.944397 	 1.244574 	 0.349110 
H 	 0.062815 	 6.948107 	 -4.638456 
H 	 -1.268242 	 6.492696 	 -6.188155 
H 	 -5.241293 	 3.768689 	 -5.143250 
H 	 -5.377700 	 4.928950 	 -6.027119 
H 	 -2.914557 	 -3.401567 	 -7.254160 
H 	 -4.375136 	 -3.521806 	 -6.785755 
H 	 2.850582 	 0.511477 	 -0.102859 
H 	 2.116561 	 1.874698 	 -0.372188 
H 	 4.063643 	 5.655562 	 -4.145344 
H 	 5.358003 	 6.378313 	 -3.560123 
H 	 2.542103 	 2.630113 	 -4.847556 
H 	 1.410352 	 1.615784 	 -4.644857 
H 	 0.632306 	 7.361893 	 0.591106 
H 	 0.435603 	 -6.306402 	 -0.266999 
H 	 4.875513 	 -0.112046 	 3.245189 
H 	 3.580347 	 -0.909745 	 3.798270 
H 	 -7.062351 	 -4.598210 	 -2.325048 
H 	 -5.552006 	 -5.142530 	 -1.952621 
H 	 2.782745 	 -1.955064 	 -2.457081 
H 	 3.073980 	 -0.862547 	 -3.487631 
H 	 2.282192 	 -4.327000 	 -1.191386 
H 	 2.939690 	 -3.186074 	 -0.270884 
H 	 1.506507 	 5.505027 	 -0.882256 
H 	 1.000161 	 4.890756 	 0.430159 
H 	 -1.428539 	 1.644134 	 6.707996 
H 	 -0.901127 	 0.219090 	 6.158186 
H 	 2.414132 	 4.278052 	 5.158599 
H 	 1.477569 	 3.511929 	 6.197281 
H 	 6.208242 	 -0.912966 	 -2.520942 
H 	 4.847270 	 -0.508924 	 -1.814649 
H 	 -2.157905 	 2.464511 	 -1.172605 
H 	 -1.687430 	 2.427566 	 -2.696645 
H 	 -3.013154 	 -1.354841 	 -1.852945 
H 	 -2.881734 	 -2.543109 	 -0.830547 
H 	 -1.902122 	 5.183922 	 6.321464 
H 	 -0.489032 	 5.172586 	 6.950169 
H 	 -0.145845 	 -1.461740 	 7.111347 
H 	 -0.789335 	 -2.386286 	 6.038406 
H 	 -5.465053 	 5.159490 	 6.288221 
H 	 -6.703472 	 6.117782 	 6.355490 
H 	 -6.667754 	 -1.052202 	 -1.857122 
H 	 -5.754697 	 -2.181184 	 -2.288867 
H 	 -2.177263 	 -6.288145 	 -4.194537 
H 	 -1.585066 	 -4.839455 	 -3.951903 
H 	 -3.730034 	 -0.850857 	 -6.297519 
H 	 -3.059108 	 0.574575 	 -5.962990 
H 	 5.872714 	 1.915810 	 1.941827 
H 	 7.160604 	 1.681655 	 2.589257 
H 	 -3.470256 	 7.064257 	 1.523628 
H 	 -4.745841 	 6.696003 	 2.250524 
H 	 2.447854 	 -4.553285 	 3.932712 
H 	 2.211960 	 -4.099638 	 5.356894 
H 	 -2.933677 	 -7.062787 	 5.192134 
H 	 -4.004471 	 -6.824013 	 6.241117 
H 	 -2.815171 	 -4.495369 	 5.074812 
H 	 -4.047812 	 -4.818121 	 4.448855 
H 	 3.664434 	 5.687902 	 -6.703370 
H 	 2.672144 	 6.787418 	 -7.273814 
H 	 4.130120 	 -6.878558 	 -2.936160 
H 	 4.013930 	 -6.082117 	 -1.599684 
H 	 -6.656854 	 1.613585 	 7.164927 
H 	 -7.230375 	 0.585415 	 -6.680065 
H 	 -0.358664 	 -4.656980 	 6.984380 
H 	 -0.420860 	 -5.396725 	 5.659474 
H 	 -2.085438 	 4.368108 	 -3.869940 
H 	 -0.815722 	 3.630450 	 -4.428100 
H 	 6.833233 	 5.629014 	 0.405297 
H 	 5.829655 	 6.263650 	 1.497448 
H 	 -3.716437 	 4.504985 	 5.237050 
H 	 -3.740887 	 3.718114 	 6.535232 
H 	 -2.882588 	 -2.838837 	 2.049772 
H 	 -2.398572 	 -2.566117 	 3.428182 
H 	 -6.378481 	 7.264153 	 3.282754 
H 	 -5.059509 	 -7.215161 	 3.985508 
H 	 6.393684 	 4.928448 	 -6.554912 
H 	 5.587144 	 3.800976 	 -7.141516 
H 	 1.822699 	 -0.068035 	 4.294116 
H 	 1.671051 	 -1.726039 	 4.326443 
H 	 4.798935 	 3.707667 	 -3.909346 
H 	 4.668640 	 3.864153 	 -5.338675 
H 	 5.169912 	 0.625122 	 -5.224279 
H 	 5.227702 	 -0.802832 	 -4.605789 
H 	 6.372489 	 4.315273 	 -2.119347 
H 	 5.514565 	 3.620611 	 -1.117825 
H 	 0.738551 	 -5.598902 	 -5.630706 
H 	 -0.648567 	 -6.249692 	 -5.906388 
H 	 3.462454 	 1.577863 	 -6.630410 
H 	 4.621151 	 1.517336 	 7.223064 
H 	 3.877915 	 -6.319815 	 3.787464 
H 	 4.655023 	 -6.004920 	 5.168480 
H 	 -2.749790 	 -4.933361 	 0.828807 
H 	 -4.209779 	 -4.204660 	 1.049516 
H 	 -6.810198 	 2.340513 	 -4.236005 
H 	 -7.216084 	 2.539883 	 -5.658065 
H 	 4.882826 	 -5.291732 	 7.552883 
H 	 5.482053 	 -4.305732 	 6.698408 
H 	 2.050137 	 -0.258395 	 7.049236 
H 	 1.259166 	 0.152249 	 -6.543565 
H 	 5.096503 	 1.097439 	 4.964337 
H 	 3.974756 	 1.986427 	 4.279230 
H 	 1.633747 	 4.771910 	 -6.830771 
H 	 1.008596 	 3.344684 	 -6.467415 
H 	 -3.285108 	 3.426720 	 0.616986 
H 	 -2.533674 	 4.731996 	 -0.095765 
H 	 -1.609592 	 1.790393 	 3.093747 
H 	 -1.096412 	 2.163451 	 4.560539 
H 	 -2.058046 	 -6.149866 	 3.125521 
H 	 -1.092254 	 -6.365292 	 1.989740 
H 	 -2.552670 	 -1.251245 	 6.127177 
H 	 -2.808216 	 -1.122494 	 4.579578 
H 	 -0.944756 	 7.226035 	 5.507323 
H 	 -0.500569 	 7.514578 	 4.057167 
H 	 -3.600283 	 2.932557 	 -6.595300 
H 	 -2.451709 	 2.835553 	 -5.550576 
H 	 1.595757 	 6.573762 	 -4.765836 
H 	 -2.309581 	 6.235516 	 -1.977849 
H 	 -5.496166 	 -1.348562 	 4.766648 
H 	 -6.266444 	 -2.684569 	 5.062045 
H 	 5.513631 	 -0.811139 	 6.640976 
H 	 4.351154 	 -1.297853 	 5.685055 
H 	 3.751780 	 5.546262 	 2.767548 
H 	 2.830249 	 5.838578 	 1.435492 
H 	 -0.533634 	 -2.483043 	 -3.435407 
H 	 -0.701967 	 -2.356553 	 -4.898011 
H 	 -1.365350 	 6.847908 	 -0.802399 
O 	 -7.110440 	 -2.774911 	 -4.909760 
O 	 4.678144 	 -6.485337 	 -0.099723 
O 	 -5.455031 	 -3.609241 	 1.970189 
O 	 5.834059 	 -2.662265 	 -6.807008 
O 	 -6.149668 	 -4.521075 	 4.918778 
O 	 6.759896 	 -5.133792 	 2.939149 
O 	 -3.787500 	 -6.720876 	 -6.500209 
O 	 -6.165221 	 3.548179 	 2.874284 
O 	 -3.922388 	 -5.429861 	 -1.771290 
O 	 -4.854339 	 1.044060 	 3.878412 
O 	 3.384969 	 -1.899736 	 -5.481993 
O 	 -3.477324 	 4.315547 	 3.570630 
O 	 2.106057 	 1.526417 	 3.654362 
O 	 6.823285 	 3.959115 	 5.050958 
O 	 -0.082991 	 -2.585750 	 -1.259751 
O 	 6.751266 	 -2.456149 	 3.074153 
O 	 2.671891 	 -5.471352 	 2.274862 
O 	 -5.628119 	 6.575462 	 -0.942129 
O 	 -2.794976 	 5.756024 	 -3.714561 
O 	 0.463826 	 4.875633 	 -2.460448 
O 	 -2.215244 	 -0.563031 	 -3.356075 
O 	 1.681574 	 2.176719 	 -2.446516 
O 	 7.061831 	 -5.700098 	 -5.259083 
O 	 -5.481369 	 -1.541040 	 -6.916643 
O 	 1.611723 	 -6.886484 	 6.566378 
O 	 0.640542 	 -1.942482 	 2.509978 
O 	 -2.109870 	 0.583509 	 1.875762 
O 	 0.522230 	 -0.276305 	 -4.081112 
O 	 -7.118372 	 1.109764 	 -0.389560 
O 	 6.849788 	 6.254483 	 -2.576223 
O 	 3.718923 	 -3.121261 	 1.411141 
O 	 7.178424 	 6.741944 	 4.138167 
O 	 5.928001 	 -3.878781 	 -2.738588 
O 	 -6.803369 	 4.008420 	 0.133216 
O 	 -6.703648 	 -6.552651 	 7.079397 
O 	 4.217220 	 -5.966738 	 -5.687379 
O 	 -5.685339 	 -7.213736 	 -4.064683 
O 	 0.830930 	 -5.900293 	 -1.880389 
O 	 0.646808 	 5.985953 	 3.470976 
O 	 4.633824 	 3.296686 	 0.944534 
O 	 -0.467789 	 0.296550 	 -0.362553 
O 	 3.823435 	 5.504698 	 4.971550 
O 	 -4.834095 	 1.882089 	 6.485912 
O 	 6.283442 	 -2.874928 	 0.122887 
O 	 0.213381 	 3.768248 	 1.634412 
O 	 1.913148 	 -4.458468 	 -4.407673 
O 	 -5.367291 	 -0.854614 	 0.489615 
O 	 -4.353681 	 1.886852 	 0.824876 
O 	 -1.457090 	 7.032613 	 -5.390566 
O 	 -4.668049 	 4.396169 	 -5.594020 
O 	 -3.641523 	 -4.037314 	 -7.136471 
O 	 2.343976 	 1.226540 	 0.318644 
O 	 4.535590 	 6.556224 	 -4.049241 
O 	 1.847321 	 2.132102 	 -5.322740 
O 	 0.401346 	 -6.594983 	 0.627281 
O 	 4.254292 	 -0.878221 	 3.074441 
O 	 -6.522346 	 -5.162021 	 -1.706656 
O 	 2.785743 	 -0.990630 	 -2.574008 
O 	 2.617276 	 -3.402587 	 -1.182406 
O 	 1.465307 	 5.658048 	 0.114516 
O 	 -0.837093 	 1.184635 	 6.097051 
O 	 1.709896 	 3.547305 	 5.234707 
O 	 5.807662 	 -0.553049 	 -1.691919 
O 	 -1.957217 	 1.817285 	 -1.932527 
O 	 -3.530378 	 -1.991978 	 -1.297675 
O 	 -1.165714 	 5.753308 	 6.568799 
O 	 -1.012978 	 -1.879379 	 6.875355 
O 	 -6.389812 	 5.243546 	 6.645014 
O 	 -6.351126 	 -1.488385 	 -2.636598 
O 	 -1.939737 	 -5.631221 	 -3.540430 
O 	 -2.902082 	 -0.429104 	 -5.955744 
O 	 6.588716 	 1.234368 	 1.996777 
O 	 -4.096079 	 6.332606 	 1.561830 
O 	 2.493533 	 -3.783493 	 4.512905 
O 	 -3.865469 	 -6.799690 	 5.274451 
O 	 -3.363456 	 -4.107894 	 4.364751 
O 	 2.744931 	 6.111873 	 -6.594462 
O 	 3.814088 	 -6.029932 	 -2.528990 
O 	 -7.428724 	 1.387558 	 -7.126810 
O 	 -0.360409 	 -4.502451 	 6.030083 
O 	 -1.730795 	 3.430358 	 -4.169956 
O 	 6.341409 	 6.422457 	 0.685998 
O 	 -3.662154 	 4.662570 	 6.235771 
O 	 -2.620404 	 -2.070258 	 2.615476 
O 	 -5.582022 	 -7.060087 	 3.122625 
O 	 5.536819 	 4.748769 	 -6.947810 
O 	 2.115454 	 -0.949278 	 4.717077 
O 	 4.064203 	 3.757562 	 -4.578983 
O 	 5.617335 	 0.078408 	 -4.576557 
O 	 5.706878 	 3.589224 	 -2.114008 
O 	 0.042106 	 -5.613032 	 -6.294416 
O 	 4.383801 	 1.816120 	 -6.765141 
O 	 4.630357 	 -6.581658 	 4.356163 
O 	 -3.218809 	 -4.123392 	 0.667800 
O 	 -6.905433 	 3.069619 	 -4.895051 
O 	 5.207836 	 -5.260414 	 6.640219 
O 	 1.616708 	 -0.586720 	 -7.036837 
O 	 4.889551 	 2.022684 	 4.621698 
O 	 0.962322 	 4.113390 	 -7.107827 
O 	 -2.474414 	 3.758144 	 0.230293 
O 	 -1.380019 	 2.554144 	 3.675346 
O 	 -2.044835 	 -6.281514 	 2.160010 
O 	 -3.262125 	 -0.968161 	 5.451264 
O 	 -0.985619 	 -6.978221 	 4.818882 
O 	 -2.930201 	 2.292883 	 -6.196210 
O 	 0.925014 	 6.906261 	 -4.128079 
O 	 -6.367613 	 -1.683424 	 5.014724 
O 	 4.879744 	 -0.519421 	 5.937484 
O 	 3.790776 	 5.766548 	 1.792098 
O 	 -0.552895 	 -3.074279 	 -4.275438 
O 	 -1.745299 	 6.042446 	 -1.184982 
K 	 -6.933695 	 -6.089351 	 0.630612 
