333
conformation = 45
H 	 -7.068890 	 -3.628637 	 -4.916752 
H 	 -7.126500 	 -2.395921 	 -4.135657 
H 	 4.254357 	 -6.622501 	 0.582274 
H 	 5.478470 	 -7.075043 	 -0.339607 
H 	 -5.333672 	 -3.642434 	 2.492330 
H 	 -5.494814 	 -2.542635 	 1.441366 
H 	 5.081155 	 -2.429788 	 -6.527751 
H 	 6.594929 	 -2.765129 	 -6.550899 
H 	 -6.183631 	 -4.953978 	 5.580729 
H 	 -6.660854 	 -4.902918 	 4.145080 
H 	 6.046724 	 -5.497381 	 3.088735 
H 	 6.608076 	 -4.075659 	 2.814581 
H 	 -2.982032 	 -7.138519 	 -6.131206 
H 	 -3.602690 	 -5.872552 	 -6.657295 
H 	 -6.676391 	 3.666689 	 3.483758 
H 	 -5.130755 	 3.754349 	 2.945550 
H 	 -3.204449 	 -5.325305 	 -2.659339 
H 	 -3.612618 	 -4.812965 	 -1.225112 
H 	 -5.181409 	 1.978465 	 3.080451 
H 	 -3.926173 	 1.023516 	 3.334932 
H 	 2.830988 	 -2.777722 	 -5.373507 
H 	 2.799285 	 -1.503427 	 -6.208160 
H 	 -2.568756 	 3.796150 	 3.314146 
H 	 -3.443395 	 5.087366 	 2.677355 
H 	 1.979540 	 1.699608 	 2.532207 
H 	 1.987312 	 2.351207 	 3.942230 
H 	 6.315704 	 3.487070 	 5.140623 
H 	 -7.285883 	 4.487957 	 5.410644 
H 	 0.833802 	 -2.681776 	 -1.559098 
H 	 -0.091945 	 -1.516777 	 -1.259076 
H 	 6.002666 	 -1.796945 	 3.162149 
H 	 -7.380041 	 -1.857251 	 3.329556 
H 	 3.087778 	 -4.656681 	 1.743952 
H 	 1.935140 	 -5.675526 	 1.624225 
H 	 -4.722420 	 6.892508 	 -0.634099 
H 	 -5.537271 	 5.730227 	 -1.094201 
H 	 -2.245996 	 6.300706 	 -4.524958 
H 	 -3.566747 	 5.585546 	 -4.068371 
H 	 -0.126095 	 5.252483 	 -2.242193 
H 	 0.981464 	 5.491851 	 -3.308583 
H 	 -2.613452 	 -0.594162 	 -4.313380 
H 	 -2.519901 	 0.272710 	 -3.004271 
H 	 1.265125 	 3.071124 	 -2.584865 
H 	 1.162600 	 1.545494 	 -2.745383 
H 	 -7.338830 	 -6.329342 	 -4.827443 
H 	 6.240190 	 -5.744067 	 -5.345715 
H 	 -5.905598 	 -1.590657 	 7.104944 
H 	 -5.905081 	 -1.917588 	 -6.265381 
H 	 1.226968 	 -7.055670 	 5.447099 
H 	 1.142180 	 -6.488498 	 6.787787 
H 	 0.579075 	 -2.837701 	 2.775990 
H 	 -0.236236 	 -1.803361 	 1.921870 
H 	 -1.268485 	 0.630026 	 0.963384 
H 	 -2.123492 	 -0.307261 	 1.857483 
H 	 1.129072 	 -0.609579 	 -3.488035 
H 	 -0.401684 	 -0.299860 	 -3.917333 
H 	 7.036440 	 0.904000 	 -1.153086 
H 	 7.433173 	 0.953774 	 0.302459 
H 	 -7.200978 	 6.212920 	 -3.460279 
H 	 7.080176 	 6.979812 	 -2.268848 
H 	 3.949001 	 -2.295193 	 1.814653 
H 	 4.849305 	 -2.919023 	 0.846960 
H 	 6.974649 	 5.889238 	 4.247220 
H 	 6.501169 	 7.394298 	 4.271861 
H 	 5.906646 	 -3.944875 	 -1.961011 
H 	 5.186726 	 -4.711635 	 -3.086576 
H 	 -7.272002 	 3.305416 	 -0.599018 
H 	 -6.519477 	 3.685907 	 0.796034 
H 	 -5.633474 	 -6.702427 	 7.245846 
H 	 -6.961510 	 -6.143541 	 -7.194505 
H 	 4.280366 	 -6.726070 	 -5.364581 
H 	 3.501209 	 -5.383100 	 -5.584562 
H 	 -5.023546 	 7.449007 	 -3.512408 
H 	 -4.990232 	 -6.864024 	 -5.023829 
H 	 0.151477 	 -5.574732 	 -2.504037 
H 	 1.206075 	 -6.554896 	 -2.726289 
H 	 0.887893 	 5.306459 	 3.931891 
H 	 0.448830 	 5.544383 	 2.504700 
H 	 4.374249 	 3.977904 	 1.285507 
H 	 3.768292 	 2.687486 	 0.596034 
H 	 -0.457022 	 0.972764 	 -1.023280 
H 	 0.703143 	 0.445489 	 -0.115104 
H 	 4.186983 	 6.309566 	 4.781004 
H 	 4.827681 	 4.974475 	 5.048246 
H 	 -4.715438 	 1.451125 	 5.334965 
H 	 -4.346902 	 1.006178 	 6.793054 
H 	 6.863385 	 -2.525466 	 0.881571 
H 	 6.383749 	 -1.915439 	 -0.523879 
H 	 -0.123912 	 3.515181 	 2.244416 
H 	 -0.712757 	 3.837818 	 0.891366 
H 	 2.281578 	 -4.891600 	 -3.847478 
H 	 1.216706 	 -3.924061 	 -4.560236 
H 	 -5.900193 	 -0.266451 	 -0.212703 
H 	 -4.519954 	 -1.102702 	 -0.142050 
H 	 -3.548770 	 1.184808 	 0.739600 
H 	 -4.954202 	 1.543133 	 0.313012 
H 	 0.187425 	 6.919564 	 -4.929560 
H 	 -1.375144 	 6.690921 	 -6.446713 
H 	 -5.459639 	 4.012530 	 -5.521995 
H 	 -4.638499 	 5.103774 	 -6.423435 
H 	 -2.829193 	 -3.326259 	 7.441884 
H 	 -4.362856 	 -3.260474 	 7.370801 
H 	 2.990731 	 0.436989 	 0.161587 
H 	 2.427392 	 1.689508 	 -0.831766 
H 	 4.197034 	 5.623285 	 -4.448491 
H 	 5.305579 	 6.317640 	 -3.641566 
H 	 2.770639 	 2.669129 	 -4.975804 
H 	 1.591657 	 1.476208 	 -4.929009 
H 	 1.006260 	 7.371245 	 0.345659 
H 	 0.731114 	 -6.055039 	 -0.306919 
H 	 4.703017 	 -0.041730 	 2.675901 
H 	 3.614889 	 -0.890299 	 3.466810 
H 	 -7.020009 	 -4.455519 	 -2.391401 
H 	 -5.620372 	 -5.194415 	 -2.174439 
H 	 2.880118 	 -1.896614 	 -2.411460 
H 	 3.255151 	 -0.938730 	 -3.591005 
H 	 2.503439 	 -4.255844 	 -1.600632 
H 	 2.995520 	 -3.257119 	 -0.430830 
H 	 1.418795 	 5.417211 	 -0.927813 
H 	 1.179705 	 5.113590 	 0.575715 
H 	 -0.999763 	 1.801325 	 6.793044 
H 	 -1.184905 	 0.478199 	 5.886752 
H 	 2.497500 	 4.235791 	 5.065838 
H 	 1.527149 	 3.626324 	 6.037254 
H 	 5.948544 	 -0.490545 	 -2.728646 
H 	 4.907551 	 -0.596390 	 -1.528519 
H 	 -2.405160 	 2.494924 	 -1.404884 
H 	 -1.990099 	 2.485607 	 -2.895579 
H 	 -2.847454 	 -2.050525 	 -2.079976 
H 	 -2.876326 	 -2.612860 	 -0.656873 
H 	 -1.916611 	 5.330444 	 6.442974 
H 	 -0.434189 	 4.925769 	 6.564268 
H 	 -0.258966 	 -1.419099 	 7.178490 
H 	 -0.665931 	 -2.785302 	 6.387380 
H 	 -5.413144 	 5.244562 	 6.380415 
H 	 -6.540136 	 6.444703 	 6.384394 
H 	 -6.545591 	 -0.906777 	 -2.001950 
H 	 -5.443919 	 -1.949978 	 -2.361599 
H 	 -1.606764 	 -6.402692 	 -4.382550 
H 	 -1.564617 	 -4.795024 	 -4.307207 
H 	 -3.582637 	 -0.840775 	 -6.445090 
H 	 -2.797564 	 0.566576 	 -6.332358 
H 	 6.053498 	 2.079886 	 1.700438 
H 	 7.352034 	 1.668138 	 2.315340 
H 	 -3.018219 	 6.796507 	 1.522584 
H 	 -4.487821 	 6.904420 	 1.996010 
H 	 2.486000 	 -4.523020 	 3.799899 
H 	 2.040190 	 -3.911064 	 5.211259 
H 	 -2.796657 	 -6.783677 	 5.010026 
H 	 -3.931833 	 -6.591961 	 6.078514 
H 	 -2.819169 	 -4.294480 	 5.028602 
H 	 -4.185027 	 -4.383389 	 4.502672 
H 	 3.760108 	 5.886952 	 -7.037559 
H 	 2.529834 	 6.578166 	 7.211177 
H 	 3.696289 	 -6.652471 	 -3.227215 
H 	 4.173737 	 -6.257853 	 -1.755279 
H 	 -6.645568 	 1.320010 	 7.096573 
H 	 7.481278 	 0.664430 	 -6.585424 
H 	 -0.355805 	 -4.930602 	 6.659428 
H 	 -0.520080 	 -5.113986 	 5.169084 
H 	 -2.072277 	 4.373239 	 -4.139620 
H 	 -0.645410 	 3.776259 	 -4.124454 
H 	 7.015586 	 5.527470 	 0.076347 
H 	 5.842264 	 6.106993 	 1.027033 
H 	 -3.527004 	 4.654809 	 4.967196 
H 	 -3.901384 	 3.734152 	 6.095629 
H 	 -2.444700 	 -2.710127 	 1.639777 
H 	 -3.001721 	 -2.711759 	 3.111552 
H 	 -6.259605 	 -7.194389 	 3.418368 
H 	 -4.767343 	 -6.721916 	 3.647235 
H 	 6.637557 	 5.113062 	 -7.382478 
H 	 5.670129 	 3.901847 	 -7.299545 
H 	 2.081042 	 0.071963 	 4.281653 
H 	 1.743376 	 -1.481542 	 4.225100 
H 	 4.757407 	 3.521585 	 -3.828020 
H 	 5.126858 	 4.004351 	 -5.129418 
H 	 5.209323 	 0.973391 	 -5.422936 
H 	 5.445735 	 -0.589937 	 -5.197595 
H 	 6.052783 	 4.506145 	 -2.308326 
H 	 5.091604 	 3.641912 	 -1.592281 
H 	 0.905665 	 -5.266587 	 -5.952831 
H 	 -0.176291 	 -6.450572 	 -6.003382 
H 	 3.372022 	 2.076293 	 -6.680010 
H 	 4.592217 	 1.423264 	 7.386641 
H 	 4.145232 	 -6.142171 	 3.663055 
H 	 4.853873 	 -5.862994 	 5.079694 
H 	 -2.650296 	 -4.847231 	 1.051516 
H 	 -3.789609 	 -3.712653 	 0.733558 
H 	 -7.052994 	 2.377816 	 -4.400167 
H 	 -7.053988 	 2.763328 	 -5.893503 
H 	 4.802805 	 -5.603553 	 7.216862 
H 	 5.294597 	 -4.240316 	 6.793670 
H 	 1.826689 	 -0.457110 	 6.628228 
H 	 1.406440 	 0.420478 	 -7.028754 
H 	 5.067141 	 1.318652 	 5.007385 
H 	 4.128356 	 2.106831 	 4.082089 
H 	 1.708340 	 4.809108 	 -7.171547 
H 	 1.345651 	 3.366179 	 -6.616557 
H 	 -3.332667 	 3.258682 	 0.219904 
H 	 -2.538524 	 4.611382 	 -0.328768 
H 	 -1.461383 	 1.859928 	 2.939735 
H 	 -1.076689 	 2.159642 	 4.430501 
H 	 -1.843292 	 -5.917035 	 3.007581 
H 	 -1.075479 	 -6.297680 	 1.795861 
H 	 -2.349880 	 -1.359363 	 5.957894 
H 	 -2.815739 	 -0.939879 	 4.576645 
H 	 -1.034108 	 7.147020 	 5.396333 
H 	 -0.638303 	 7.342313 	 3.909073 
H 	 -3.536004 	 2.796985 	 -6.424567 
H 	 -2.279620 	 2.565103 	 -5.613237 
H 	 1.731306 	 7.230658 	 -5.215011 
H 	 -2.255522 	 6.184877 	 -2.095996 
H 	 -5.466614 	 -1.083062 	 4.737571 
H 	 -5.940676 	 -2.618355 	 4.820625 
H 	 5.315451 	 -1.349561 	 6.385427 
H 	 4.144241 	 -0.796285 	 5.424963 
H 	 3.339589 	 5.824048 	 2.411020 
H 	 3.230333 	 5.810644 	 0.852288 
H 	 -0.527135 	 -2.487868 	 -3.697512 
H 	 -0.517813 	 -2.168735 	 -5.098984 
H 	 -1.623958 	 6.994222 	 -0.855400 
O 	 -7.027115 	 -2.663086 	 -5.098848 
O 	 4.817570 	 -6.368372 	 -0.209779 
O 	 -5.252768 	 -3.512858 	 1.548750 
O 	 5.820892 	 -2.683375 	 -7.114080 
O 	 -6.155594 	 -4.374086 	 4.783879 
O 	 6.831684 	 -5.054408 	 2.753211 
O 	 -3.773654 	 -6.839098 	 -6.639760 
O 	 -6.051195 	 3.525932 	 2.719511 
O 	 -3.873846 	 -5.393285 	 -1.934553 
O 	 -4.835661 	 1.200393 	 3.600699 
O 	 3.396749 	 -2.039013 	 -5.650745 
O 	 -3.390853 	 4.328747 	 3.336797 
O 	 2.283376 	 1.568628 	 3.418923 
O 	 6.915740 	 4.183426 	 4.765417 
O 	 -0.102423 	 -2.430528 	 -1.611958 
O 	 6.768444 	 -2.327509 	 2.930086 
O 	 2.766190 	 -5.482206 	 2.148466 
O 	 -5.496971 	 6.696711 	 -1.183128 
O 	 -2.696086 	 5.745348 	 -3.746609 
O 	 0.740848 	 4.925406 	 -2.570392 
O 	 -2.256140 	 -0.623906 	 -3.366763 
O 	 1.754592 	 2.224000 	 -2.467118 
O 	 7.220484 	 -5.663024 	 -5.371556 
O 	 -5.354181 	 -1.565680 	 -6.985652 
O 	 1.799409 	 -6.864697 	 6.212343 
O 	 0.632467 	 -1.949311 	 2.321119 
O 	 -2.016118 	 0.687782 	 1.662031 
O 	 0.528632 	 -0.359552 	 -4.265672 
O 	 -7.079231 	 1.009648 	 -0.579690 
O 	 6.867403 	 6.356794 	 -2.979581 
O 	 3.927792 	 -3.057978 	 1.244067 
O 	 7.272754 	 6.777016 	 3.983555 
O 	 5.794647 	 -3.950451 	 -2.932289 
O 	 -6.782801 	 3.988216 	 -0.122295 
O 	 -6.482482 	 -6.421144 	 6.836352 
O 	 4.312962 	 -5.883330 	 -5.842280 
O 	 -5.592012 	 -7.121256 	 -4.270169 
O 	 1.070156 	 -5.742154 	 -2.217567 
O 	 0.646421 	 6.090997 	 3.316157 
O 	 4.622509 	 3.166991 	 0.752559 
O 	 -0.214385 	 0.237538 	 -0.463666 
O 	 3.973581 	 5.381491 	 4.816056 
O 	 -4.746828 	 1.737860 	 6.323455 
O 	 6.423778 	 -2.712617 	 0.034548 
O 	 0.150284 	 3.872088 	 1.336483 
O 	 2.029029 	 -4.459886 	 -4.682611 
O 	 -5.302415 	 -0.763156 	 0.431638 
O 	 -4.179791 	 1.974308 	 0.683120 
O 	 -1.425896 	 7.066351 	 -5.555619 
O 	 -4.537589 	 4.450198 	 -5.726632 
O 	 -3.613200 	 -3.903610 	 -7.381911 
O 	 2.484965 	 1.287652 	 0.073391 
O 	 4.539418 	 6.505851 	 -4.248800 
O 	 2.030273 	 2.182954 	 -5.505139 
O 	 0.570127 	 -6.642796 	 0.526467 
O 	 4.456253 	 -0.944541 	 2.854161 
O 	 -6.509414 	 -4.997603 	 -1.802533 
O 	 2.714683 	 -0.961098 	 -2.753031 
O 	 2.706643 	 -3.315941 	 -1.405198 
O 	 1.663838 	 5.763060 	 -0.051052 
O 	 -0.695378 	 1.316427 	 5.991275 
O 	 1.779516 	 3.605158 	 5.038323 
O 	 5.865570 	 -0.587197 	 -1.771994 
O 	 -1.866980 	 1.981036 	 -2.063691 
O 	 -3.404421 	 -2.050569 	 -1.288564 
O 	 -1.003032 	 5.734472 	 6.406457 
O 	 -0.926631 	 -1.887350 	 6.640029 
O 	 -6.368716 	 5.479441 	 6.523989 
O 	 -6.214584 	 -1.487432 	 -2.750219 
O 	 -1.720968 	 -5.618092 	 -3.758694 
O 	 -2.751612 	 -0.403748 	 -6.190856 
O 	 6.585982 	 1.273422 	 1.770447 
O 	 -3.894548 	 6.332119 	 1.436719 
O 	 2.468868 	 -3.671575 	 4.338951 
O 	 -3.787299 	 -6.707462 	 5.104971 
O 	 -3.290468 	 -4.121294 	 4.191294 
O 	 2.850157 	 6.066322 	 -6.880899 
O 	 3.920233 	 -5.911148 	 -2.639911 
O 	 7.425573 	 1.435805 	 -7.256636 
O 	 -0.341421 	 -4.391846 	 5.817354 
O 	 -1.556075 	 3.527118 	 -4.386497 
O 	 6.462061 	 6.325706 	 0.308915 
O 	 -3.672488 	 4.668995 	 5.936586 
O 	 -2.540102 	 -2.106193 	 2.459268 
O 	 -5.422225 	 -7.014598 	 2.933864 
O 	 5.708490 	 4.857827 	 -7.067500 
O 	 2.287178 	 -0.797558 	 4.655771 
O 	 4.281281 	 3.816586 	 -4.651457 
O 	 5.585396 	 0.297599 	 -4.785313 
O 	 5.712154 	 3.580045 	 -2.316593 
O 	 0.147847 	 -5.651668 	 -6.489840 
O 	 4.351985 	 2.097984 	 -6.849102 
O 	 4.823712 	 -6.505820 	 4.261641 
O 	 -2.946461 	 -4.198070 	 0.326283 
O 	 -6.777232 	 3.083251 	 -5.004157 
O 	 5.231571 	 -5.146766 	 6.431917 
O 	 1.575770 	 -0.523691 	 -7.320658 
O 	 5.028654 	 2.123292 	 4.483930 
O 	 1.089102 	 4.029831 	 -7.284602 
O 	 -2.458196 	 3.758905 	 0.039541 
O 	 -1.172691 	 2.569243 	 3.541528 
O 	 -2.006142 	 -6.221020 	 2.100446 
O 	 -3.144502 	 -1.000089 	 5.466539 
O 	 -0.938070 	 -7.033007 	 4.690161 
O 	 -2.744987 	 2.257413 	 -6.431134 
O 	 1.096768 	 6.988517 	 -4.523594 
O 	 -6.234562 	 -1.692745 	 4.808135 
O 	 4.993271 	 -0.598987 	 5.857813 
O 	 3.838071 	 5.810044 	 1.586450 
O 	 -0.374768 	 -2.948831 	 -4.507636 
O 	 -1.791799 	 6.123778 	 -1.229361 
K 	 -6.881185 	 -6.088748 	 0.439554 
