333
conformation = 17
H 	 -7.338113 	 -3.676371 	 -4.660856 
H 	 -7.058811 	 -2.315490 	 -4.051129 
H 	 4.027335 	 -6.417068 	 0.620483 
H 	 5.182235 	 -7.283133 	 -0.062440 
H 	 -5.174575 	 -3.516584 	 2.782332 
H 	 -5.606233 	 -2.672397 	 1.602464 
H 	 5.061138 	 -2.656791 	 -6.229449 
H 	 6.604556 	 -2.543843 	 -6.342624 
H 	 -6.332517 	 -5.081436 	 5.650513 
H 	 -6.882408 	 -4.803002 	 4.278618 
H 	 6.096300 	 -5.612119 	 3.443376 
H 	 6.651289 	 -4.141209 	 3.006417 
H 	 -2.979427 	 7.612725 	 -6.215603 
H 	 -3.476235 	 -5.839860 	 -6.573543 
H 	 -6.753802 	 3.583151 	 3.598057 
H 	 -5.386006 	 4.026946 	 3.126027 
H 	 -3.254157 	 -5.414321 	 -2.553258 
H 	 -3.805222 	 -4.705031 	 -1.209244 
H 	 -5.249924 	 1.704971 	 3.157685 
H 	 -4.001442 	 0.899371 	 3.438195 
H 	 2.926966 	 -2.680342 	 -5.082066 
H 	 2.660445 	 -1.424467 	 -5.987610 
H 	 -2.722486 	 3.640086 	 3.506575 
H 	 -3.420780 	 4.870292 	 2.734966 
H 	 1.867759 	 1.744469 	 2.709414 
H 	 1.781262 	 2.283582 	 4.200822 
H 	 6.227842 	 3.248453 	 5.159587 
H 	 7.254402 	 4.330403 	 5.798916 
H 	 0.835174 	 -2.714050 	 -1.196662 
H 	 -0.230469 	 -1.721738 	 -0.823575 
H 	 5.931287 	 -1.922123 	 3.039211 
H 	 7.254919 	 -2.068971 	 3.800578 
H 	 2.808474 	 -4.621218 	 1.792673 
H 	 1.970208 	 -5.848062 	 1.705248 
H 	 -4.900235 	 6.520315 	 -0.329017 
H 	 -6.042806 	 5.732270 	 -0.806673 
H 	 -2.277362 	 6.283168 	 -4.542196 
H 	 -3.617161 	 5.433824 	 -4.096543 
H 	 -0.389080 	 5.112342 	 -2.171851 
H 	 0.749712 	 5.610551 	 -3.206669 
H 	 -2.607719 	 -0.393480 	 -4.250507 
H 	 -2.268219 	 0.284507 	 -2.894458 
H 	 1.005628 	 2.931792 	 -2.423673 
H 	 1.221153 	 1.347296 	 -2.657368 
H 	 7.381042 	 -6.135986 	 -4.511184 
H 	 6.096854 	 -5.747441 	 -5.162748 
H 	 -5.875822 	 -1.873118 	 7.122238 
H 	 -5.930894 	 -1.959841 	 -6.187622 
H 	 1.346580 	 -6.686811 	 5.576893 
H 	 0.933790 	 -6.510512 	 7.058591 
H 	 0.772220 	 -2.882790 	 2.751793 
H 	 -0.269486 	 -1.866230 	 2.103476 
H 	 -1.491279 	 0.557638 	 1.034060 
H 	 -2.331698 	 -0.357889 	 2.042645 
H 	 0.915113 	 -0.822892 	 -3.368812 
H 	 -0.456048 	 -0.300415 	 -3.961021 
H 	 7.207174 	 0.832088 	 -1.177946 
H 	 7.143479 	 1.219082 	 0.358371 
H 	 -7.434618 	 6.413992 	 -3.381507 
H 	 7.082315 	 6.971734 	 -2.059785 
H 	 3.869043 	 -2.277474 	 1.889528 
H 	 4.662009 	 -3.186622 	 1.029229 
H 	 6.989209 	 5.801383 	 3.943353 
H 	 6.265882 	 7.166783 	 4.127877 
H 	 5.635334 	 -3.713962 	 -1.863270 
H 	 5.292804 	 -4.676932 	 -3.016287 
H 	 -7.069765 	 3.128742 	 -0.309481 
H 	 -6.544487 	 3.828989 	 0.983790 
H 	 -5.914825 	 -6.670867 	 -7.303425 
H 	 -7.401801 	 -6.344750 	 -7.191904 
H 	 4.067134 	 -6.848867 	 -5.518976 
H 	 3.415760 	 -5.448666 	 -5.524480 
H 	 -5.310670 	 -7.285807 	 -3.184172 
H 	 -5.008845 	 -6.831092 	 -4.763306 
H 	 0.077998 	 -5.835861 	 -2.526300 
H 	 1.364682 	 -6.555274 	 -2.436632 
H 	 0.219342 	 5.675489 	 4.257807 
H 	 0.247709 	 5.360350 	 2.747308 
H 	 4.625396 	 4.253170 	 0.969973 
H 	 3.647454 	 2.988611 	 0.872911 
H 	 -0.747300 	 0.987680 	 -0.999436 
H 	 0.481043 	 0.548932 	 -0.148178 
H 	 4.017153 	 6.398449 	 5.075208 
H 	 4.625231 	 5.038701 	 5.275054 
H 	 -4.801339 	 1.819826 	 5.487429 
H 	 -4.461625 	 0.961032 	 6.504863 
H 	 6.727999 	 -2.403197 	 0.855412 
H 	 6.183793 	 -2.170363 	 -0.600241 
H 	 0.137120 	 3.282315 	 2.437475 
H 	 -0.738019 	 3.729785 	 1.226427 
H 	 2.208302 	 -4.619026 	 -3.575130 
H 	 1.079226 	 -3.976036 	 -4.567118 
H 	 -6.187102 	 -0.325239 	 0.297113 
H 	 -5.015681 	 -0.957327 	 -0.442616 
H 	 -3.633471 	 1.226885 	 1.061147 
H 	 -4.968595 	 1.269118 	 0.421379 
H 	 0.051906 	 6.927940 	 -4.740180 
H 	 -1.320931 	 6.555455 	 -6.266694 
H 	 -5.272108 	 3.643301 	 -5.332441 
H 	 -5.221909 	 4.948961 	 -6.174053 
H 	 -2.954335 	 -3.352696 	 -7.304189 
H 	 -4.437259 	 -3.447368 	 -6.980985 
H 	 2.791050 	 0.394465 	 -0.100303 
H 	 2.017919 	 1.782637 	 -0.481616 
H 	 4.047534 	 5.726819 	 -4.193629 
H 	 5.292652 	 6.192620 	 -3.508267 
H 	 2.587334 	 2.645647 	 -4.898671 
H 	 1.323497 	 1.580747 	 -4.744246 
H 	 0.608128 	 7.310271 	 0.438407 
H 	 0.588355 	 -6.159363 	 -0.332544 
H 	 4.824974 	 -0.160432 	 3.185583 
H 	 3.562646 	 -0.867523 	 3.724422 
H 	 -7.017645 	 -4.571482 	 -2.296435 
H 	 -5.574018 	 -5.277499 	 -1.966585 
H 	 2.697407 	 -1.982924 	 -2.561367 
H 	 3.130963 	 -0.836132 	 -3.513612 
H 	 2.190902 	 -4.246638 	 -1.288898 
H 	 2.912028 	 -3.257002 	 -0.304791 
H 	 1.467631 	 5.502232 	 -0.880228 
H 	 0.973809 	 4.891004 	 0.437683 
H 	 -1.293431 	 1.641134 	 6.799557 
H 	 -0.960256 	 0.250150 	 6.177874 
H 	 2.372657 	 4.251449 	 5.217211 
H 	 1.462905 	 3.563856 	 6.140482 
H 	 6.132264 	 -0.911105 	 -2.549108 
H 	 4.826301 	 -0.621387 	 -1.685225 
H 	 -2.224988 	 2.480052 	 -1.291724 
H 	 -1.710710 	 2.430299 	 -2.697250 
H 	 -2.985597 	 -1.558444 	 -1.966821 
H 	 -2.897639 	 -2.547792 	 -0.708743 
H 	 -1.946760 	 5.145099 	 6.306931 
H 	 -0.405195 	 5.108656 	 6.732514 
H 	 -0.193271 	 -1.483034 	 7.140915 
H 	 -0.797614 	 -2.513506 	 6.127016 
H 	 -5.461740 	 5.154215 	 6.386357 
H 	 -6.729778 	 6.188639 	 6.367841 
H 	 -6.660208 	 -0.994804 	 -1.866001 
H 	 -5.750829 	 -2.188833 	 -2.293003 
H 	 -2.177975 	 -6.305225 	 -4.278997 
H 	 -1.589478 	 -4.867156 	 -4.115647 
H 	 -3.676750 	 -0.923305 	 -6.342739 
H 	 -3.011669 	 0.536010 	 -6.128791 
H 	 5.878352 	 1.948437 	 1.905148 
H 	 7.260351 	 1.702595 	 2.525486 
H 	 -3.429335 	 7.066302 	 1.534922 
H 	 -4.746492 	 6.767125 	 2.144572 
H 	 2.483636 	 -4.578144 	 3.888875 
H 	 2.192102 	 -4.008925 	 5.388990 
H 	 -2.906114 	 -6.963005 	 5.193962 
H 	 -4.095987 	 -6.728801 	 6.193273 
H 	 -2.790291 	 -4.458911 	 5.029109 
H 	 -4.125259 	 -4.763449 	 4.339282 
H 	 3.619612 	 5.716216 	 -6.771395 
H 	 2.613112 	 6.774088 	 7.520863 
H 	 3.816821 	 -6.910928 	 -2.981696 
H 	 4.093802 	 -6.164780 	 -1.547652 
H 	 -6.713688 	 1.374875 	 7.129002 
H 	 -7.140048 	 0.561156 	 -6.658932 
H 	 -0.435147 	 -4.672120 	 6.967513 
H 	 -0.344251 	 -5.413440 	 5.584533 
H 	 -2.120250 	 4.367721 	 -3.973040 
H 	 -0.764022 	 3.622769 	 -4.301213 
H 	 6.843357 	 5.577892 	 0.341380 
H 	 5.905120 	 6.187100 	 1.427961 
H 	 -3.774167 	 4.554832 	 5.164973 
H 	 -3.877829 	 3.774521 	 6.555884 
H 	 -2.789162 	 -2.886137 	 2.000649 
H 	 -2.476915 	 -2.446067 	 3.468755 
H 	 -6.358899 	 7.277259 	 3.155212 
H 	 -5.071368 	 -7.190051 	 3.885594 
H 	 6.513713 	 4.994087 	 -6.704654 
H 	 5.598456 	 3.796336 	 -7.152376 
H 	 1.804711 	 -0.127367 	 4.253021 
H 	 1.634660 	 -1.614575 	 4.250577 
H 	 4.681957 	 3.708821 	 -3.801680 
H 	 4.697728 	 3.924258 	 -5.373755 
H 	 5.032205 	 0.608420 	 -5.299959 
H 	 5.240680 	 -0.796580 	 -4.669776 
H 	 6.292176 	 4.339009 	 -2.244633 
H 	 5.354488 	 3.629507 	 -1.271692 
H 	 0.842079 	 -5.503572 	 -5.771386 
H 	 -0.543066 	 -6.197068 	 -5.798895 
H 	 3.422055 	 1.591698 	 -6.623119 
H 	 4.643513 	 1.610268 	 7.231816 
H 	 3.905137 	 -6.281803 	 3.775894 
H 	 4.680712 	 -5.965533 	 5.135507 
H 	 -2.758410 	 -5.009862 	 0.881739 
H 	 -4.028949 	 -4.178398 	 0.974905 
H 	 -6.863635 	 2.315074 	 -4.292218 
H 	 -7.305306 	 2.692471 	 -5.776892 
H 	 4.821871 	 -5.458796 	 7.514077 
H 	 5.370155 	 -4.297433 	 6.550326 
H 	 2.059914 	 -0.192717 	 7.012395 
H 	 1.233103 	 0.261075 	 -6.686275 
H 	 5.040524 	 1.183882 	 5.001537 
H 	 3.976271 	 1.943904 	 4.260645 
H 	 1.657661 	 4.783451 	 -6.919544 
H 	 1.051569 	 3.363768 	 -6.501178 
H 	 -3.389235 	 3.395209 	 0.474527 
H 	 -2.573863 	 4.649922 	 -0.127643 
H 	 -1.582770 	 1.780868 	 3.043544 
H 	 -1.060938 	 2.103937 	 4.459288 
H 	 -2.056584 	 -6.208422 	 3.130504 
H 	 -1.080382 	 -6.332098 	 1.878078 
H 	 -2.596426 	 -1.264229 	 6.081541 
H 	 -2.861901 	 -1.135604 	 4.605180 
H 	 -0.889168 	 7.218372 	 5.518682 
H 	 -0.625696 	 7.478975 	 3.983667 
H 	 -3.561397 	 2.885515 	 -6.616982 
H 	 -2.359909 	 2.838865 	 -5.586506 
H 	 1.701896 	 6.851905 	 -4.838629 
H 	 -2.366366 	 6.294954 	 -1.967403 
H 	 -5.492379 	 -1.285755 	 4.757660 
H 	 -6.232560 	 -2.671370 	 5.006186 
H 	 5.451967 	 -0.938137 	 6.592649 
H 	 4.263073 	 -1.210382 	 5.604432 
H 	 3.705402 	 5.614816 	 2.705344 
H 	 2.915628 	 5.796596 	 1.311243 
H 	 -0.498996 	 -2.520362 	 -3.517654 
H 	 -0.676485 	 -2.383641 	 -5.055103 
H 	 -1.421559 	 6.848295 	 -0.810936 
O 	 -7.117667 	 -2.756169 	 -4.953186 
O 	 4.686899 	 -6.469394 	 -0.144418 
O 	 -5.418800 	 -3.595078 	 1.870692 
O 	 5.812903 	 -2.684829 	 -6.869579 
O 	 -6.169835 	 -4.493046 	 4.883045 
O 	 6.751023 	 -5.120921 	 2.892738 
O 	 -3.801515 	 -6.760880 	 -6.538674 
O 	 -6.146936 	 3.533302 	 2.830260 
O 	 -3.923833 	 -5.423255 	 -1.802603 
O 	 -4.875504 	 1.066595 	 3.821387 
O 	 3.355540 	 -1.945920 	 -5.535449 
O 	 -3.481493 	 4.306324 	 3.519287 
O 	 2.127444 	 1.519004 	 3.594449 
O 	 6.825966 	 4.003998 	 4.989021 
O 	 -0.107338 	 -2.561408 	 -1.342398 
O 	 6.731371 	 -2.440849 	 3.046109 
O 	 2.671992 	 -5.476884 	 2.245031 
O 	 -5.621861 	 6.602943 	 -1.007633 
O 	 -2.786792 	 5.744365 	 -3.721646 
O 	 0.508499 	 4.878509 	 -2.480676 
O 	 -2.258022 	 -0.595302 	 -3.353385 
O 	 1.676471 	 2.176762 	 -2.463280 
O 	 7.085731 	 -5.707462 	 -5.286559 
O 	 -5.476778 	 -1.554391 	 -6.936451 
O 	 1.626768 	 -6.889557 	 6.478705 
O 	 0.614741 	 -1.952156 	 2.467354 
O 	 -2.109593 	 0.602716 	 1.823168 
O 	 0.505318 	 -0.327877 	 -4.123503 
O 	 -7.121991 	 1.065077 	 -0.432548 
O 	 6.815441 	 6.264774 	 -2.672916 
O 	 3.748931 	 -3.114130 	 1.381735 
O 	 7.197939 	 6.745615 	 4.104975 
O 	 5.873239 	 -3.908861 	 -2.784407 
O 	 -6.811058 	 3.981627 	 0.070378 
O 	 -6.675098 	 -6.526374 	 7.015041 
O 	 4.214811 	 -5.965194 	 -5.715623 
O 	 -5.680265 	 -7.196313 	 -4.121599 
O 	 0.872823 	 -5.877517 	 -1.955288 
O 	 0.635715 	 5.996732 	 3.430522 
O 	 4.599084 	 3.255305 	 0.905867 
O 	 -0.434547 	 0.270085 	 -0.394062 
O 	 3.835996 	 5.464006 	 4.935414 
O 	 -4.835154 	 1.841140 	 6.454746 
O 	 6.296598 	 -2.847945 	 0.101337 
O 	 0.185251 	 3.783079 	 1.557152 
O 	 1.917145 	 -4.481041 	 -4.461245 
O 	 -5.366261 	 -0.836212 	 0.474553 
O 	 -4.331192 	 1.895605 	 0.786916 
O 	 -1.475116 	 7.025618 	 -5.425924 
O 	 -4.662620 	 4.398603 	 -5.619696 
O 	 -3.658947 	 -4.021907 	 -7.197505 
O 	 2.367561 	 1.236066 	 0.265386 
O 	 4.532279 	 6.527365 	 -4.096992 
O 	 1.876153 	 2.135682 	 -5.361882 
O 	 0.420798 	 -6.619604 	 0.602361 
O 	 4.278615 	 -0.910053 	 3.024865 
O 	 -6.536225 	 -5.131556 	 -1.725633 
O 	 2.739465 	 -1.000331 	 -2.618748 
O 	 2.625295 	 -3.386813 	 -1.240727 
O 	 1.495362 	 5.673114 	 0.072779 
O 	 -0.828651 	 1.205107 	 6.056152 
O 	 1.709077 	 3.541955 	 5.182832 
O 	 5.807575 	 -0.559675 	 -1.713191 
O 	 -1.964082 	 1.837137 	 -1.963672 
O 	 -3.515246 	 -2.017498 	 -1.292080 
O 	 -1.154069 	 5.736539 	 6.532998 
O 	 -1.023094 	 -1.885231 	 6.814484 
O 	 -6.405555 	 5.280406 	 6.601635 
O 	 -6.340369 	 -1.501164 	 -2.672869 
O 	 -1.914210 	 -5.643546 	 -3.583016 
O 	 -2.887727 	 -0.427683 	 -6.011414 
O 	 6.571471 	 1.228819 	 1.936059 
O 	 -4.077992 	 6.314093 	 1.537754 
O 	 2.467361 	 -3.771787 	 4.467741 
O 	 -3.863803 	 -6.785695 	 5.225281 
O 	 -3.376285 	 -4.123811 	 4.328048 
O 	 2.748224 	 6.081415 	 -6.664546 
O 	 3.828545 	 -6.008707 	 -2.547377 
O 	 7.432851 	 1.396427 	 -7.154765 
O 	 -0.375332 	 -4.488745 	 5.972862 
O 	 -1.732544 	 3.446000 	 -4.234338 
O 	 6.335908 	 6.397872 	 0.593848 
O 	 -3.677491 	 4.648394 	 6.155061 
O 	 -2.635622 	 -2.097879 	 2.577174 
O 	 -5.561551 	 -7.054327 	 3.087926 
O 	 5.552729 	 4.766348 	 -6.977421 
O 	 2.138840 	 -0.928597 	 4.697482 
O 	 4.112582 	 3.760548 	 -4.609617 
O 	 5.594946 	 0.128013 	 -4.623580 
O 	 5.687766 	 3.578510 	 -2.159089 
O 	 0.041396 	 -5.635258 	 -6.337720 
O 	 4.344675 	 1.875559 	 -6.779917 
O 	 4.655901 	 -6.568316 	 4.331098 
O 	 -3.184504 	 -4.148336 	 0.574747 
O 	 -6.885176 	 3.064827 	 -4.919198 
O 	 5.194308 	 -5.236664 	 6.596027 
O 	 1.588747 	 -0.591832 	 -7.102764 
O 	 4.905018 	 2.045894 	 4.581198 
O 	 0.975535 	 4.081870 	 -7.148894 
O 	 -2.494845 	 3.751646 	 0.183303 
O 	 -1.356396 	 2.549202 	 3.651313 
O 	 -2.056346 	 -6.272884 	 2.161138 
O 	 -3.238764 	 -0.997901 	 5.452336 
O 	 -1.001780 	 -6.999010 	 4.779708 
O 	 -2.919510 	 2.280014 	 -6.238692 
O 	 0.943577 	 6.911513 	 -4.228048 
O 	 -6.361354 	 -1.694520 	 4.956251 
O 	 4.885740 	 -0.551287 	 5.909422 
O 	 3.772047 	 5.760807 	 1.732288 
O 	 -0.531829 	 -3.034247 	 -4.326663 
O 	 -1.777693 	 6.044591 	 -1.196899 
K 	 -6.942873 	 -6.103241 	 0.578098 
