333
conformation = 61
H 	 -7.154213 	 -3.727527 	 -5.114567 
H 	 -6.924096 	 -2.391263 	 -4.133517 
H 	 4.238132 	 -6.677582 	 0.661876 
H 	 5.339874 	 -7.285980 	 -0.176479 
H 	 -5.462146 	 -3.789368 	 2.394371 
H 	 -5.398125 	 -2.589857 	 1.314337 
H 	 4.914624 	 -2.654508 	 -6.647944 
H 	 6.361254 	 -2.936676 	 -6.411024 
H 	 -6.300879 	 -5.028255 	 5.639773 
H 	 -6.799197 	 -4.774761 	 4.172319 
H 	 6.093608 	 -5.587324 	 3.241430 
H 	 6.674544 	 -4.133391 	 2.853872 
H 	 -2.933330 	 -7.228832 	 -6.260760 
H 	 -3.816696 	 -5.991320 	 -6.674420 
H 	 -6.584190 	 3.869788 	 3.480209 
H 	 -5.154815 	 3.654782 	 3.028036 
H 	 -3.137265 	 -5.623131 	 -2.526421 
H 	 -3.437701 	 -5.251951 	 -1.096875 
H 	 -5.226005 	 1.927375 	 3.129839 
H 	 -4.005134 	 1.046936 	 3.154821 
H 	 2.957789 	 -3.033625 	 -5.359159 
H 	 2.820979 	 -1.711593 	 -6.233682 
H 	 -2.597680 	 3.728705 	 3.139517 
H 	 -3.381319 	 4.978472 	 2.650315 
H 	 1.994527 	 1.551991 	 2.553410 
H 	 1.859101 	 2.192239 	 3.965655 
H 	 6.451486 	 3.303509 	 4.947297 
H 	 -7.425566 	 4.353641 	 5.580589 
H 	 0.752852 	 -2.737353 	 -1.459311 
H 	 -0.211211 	 -1.515380 	 -1.472010 
H 	 5.961751 	 -2.001856 	 3.366173 
H 	 -7.426725 	 -2.049028 	 3.542589 
H 	 3.276084 	 -4.872685 	 1.793309 
H 	 1.919723 	 -5.752077 	 1.729025 
H 	 -4.663934 	 6.902088 	 -0.695740 
H 	 -5.548622 	 5.685854 	 -0.938879 
H 	 -2.160910 	 6.266109 	 -4.345963 
H 	 -3.578887 	 5.638862 	 -4.051005 
H 	 -0.017278 	 5.274793 	 -2.181838 
H 	 1.128932 	 5.453044 	 -3.156166 
H 	 -2.626220 	 -0.695743 	 -4.243657 
H 	 -2.735001 	 -0.026301 	 -2.742432 
H 	 1.426956 	 3.053933 	 -2.407846 
H 	 1.072828 	 1.588781 	 -2.740837 
H 	 -7.294040 	 -6.434686 	 -4.829340 
H 	 6.266327 	 -5.775841 	 -5.253239 
H 	 -5.882758 	 -1.316515 	 7.266801 
H 	 -5.981627 	 -2.007128 	 -6.214823 
H 	 1.209123 	 7.500373 	 5.588836 
H 	 1.353361 	 -6.587886 	 6.910396 
H 	 0.561420 	 -2.884171 	 2.909221 
H 	 -0.349951 	 -1.889875 	 2.196083 
H 	 -1.245779 	 0.476041 	 1.004817 
H 	 -2.272073 	 -0.288345 	 2.097496 
H 	 1.198511 	 -0.856856 	 -3.666838 
H 	 -0.356665 	 -0.537484 	 -3.697052 
H 	 6.990369 	 0.610370 	 -1.057190 
H 	 7.429950 	 0.904547 	 0.345762 
H 	 -7.195379 	 6.152492 	 -3.476478 
H 	 7.191720 	 6.816478 	 -2.250773 
H 	 3.877950 	 -2.403284 	 1.829877 
H 	 4.886629 	 -3.150109 	 0.847330 
H 	 6.923233 	 5.850682 	 4.381113 
H 	 6.510684 	 7.399537 	 4.266531 
H 	 5.878263 	 -4.021743 	 -1.925793 
H 	 5.032297 	 -4.777143 	 -2.935142 
H 	 -7.231439 	 3.109676 	 -0.491292 
H 	 -6.559393 	 3.555147 	 0.784061 
H 	 -5.555253 	 -6.747642 	 7.247469 
H 	 -6.942496 	 -6.028237 	 -7.270598 
H 	 4.388547 	 -6.778029 	 -5.260053 
H 	 3.628287 	 -5.405343 	 -5.376737 
H 	 -4.992237 	 7.485564 	 -3.443240 
H 	 -5.016985 	 -7.236579 	 -5.045397 
H 	 0.177517 	 -5.461929 	 -2.371603 
H 	 1.165648 	 -6.574978 	 -2.790246 
H 	 1.170205 	 5.288489 	 3.828729 
H 	 0.391329 	 5.701876 	 2.448324 
H 	 4.162618 	 3.615175 	 1.464513 
H 	 3.943770 	 2.277114 	 0.700990 
H 	 -0.489654 	 0.704113 	 -1.043055 
H 	 0.680115 	 0.578472 	 -0.047172 
H 	 4.131197 	 6.171293 	 4.702003 
H 	 4.880012 	 4.864822 	 4.950145 
H 	 -4.875279 	 1.066573 	 5.498436 
H 	 -4.173310 	 1.033599 	 6.890929 
H 	 6.828866 	 -2.623575 	 1.004851 
H 	 6.631734 	 -1.918050 	 -0.312498 
H 	 -0.234665 	 3.344470 	 2.193433 
H 	 -0.694089 	 3.741127 	 0.750934 
H 	 2.206114 	 -5.114298 	 -3.933146 
H 	 1.245674 	 -4.024363 	 -4.338957 
H 	 -5.762158 	 -0.540760 	 -0.288561 
H 	 -4.403244 	 -1.204557 	 0.170804 
H 	 -3.622401 	 1.121280 	 1.015344 
H 	 -4.969927 	 1.650105 	 0.250249 
H 	 0.178980 	 6.843634 	 -4.897267 
H 	 -1.342920 	 6.449119 	 -6.305493 
H 	 -5.461618 	 4.359523 	 -5.279479 
H 	 -4.570817 	 5.035866 	 -6.351516 
H 	 -2.783214 	 -3.470181 	 -7.323131 
H 	 -4.302972 	 -3.205745 	 7.484636 
H 	 3.195207 	 0.488135 	 0.217249 
H 	 2.587677 	 1.349374 	 -0.871336 
H 	 4.295746 	 5.456321 	 -4.358694 
H 	 5.380352 	 6.514457 	 -3.889329 
H 	 2.776348 	 2.530812 	 -4.865008 
H 	 1.746848 	 1.265968 	 -4.939995 
H 	 1.156644 	 7.343685 	 0.466844 
H 	 0.614265 	 -6.359828 	 -0.341418 
H 	 4.608937 	 -0.173415 	 2.526470 
H 	 3.748423 	 -1.002011 	 3.603411 
H 	 -7.119764 	 -4.652361 	 -2.410083 
H 	 -5.649085 	 -5.042282 	 -2.112644 
H 	 2.846151 	 -1.874313 	 -2.153145 
H 	 3.159027 	 -1.224911 	 -3.557182 
H 	 2.944175 	 -4.297886 	 -1.643317 
H 	 3.060795 	 -3.302413 	 -0.411868 
H 	 1.535382 	 5.335190 	 -0.889223 
H 	 1.207387 	 5.040620 	 0.630701 
H 	 -1.181519 	 1.729046 	 6.803711 
H 	 -1.373415 	 0.575875 	 6.002646 
H 	 2.597290 	 4.030675 	 5.052678 
H 	 1.496780 	 3.435693 	 6.047483 
H 	 5.781854 	 -0.323665 	 -2.592887 
H 	 4.852157 	 -0.557761 	 -1.530217 
H 	 -2.215116 	 2.489041 	 -1.241118 
H 	 -1.947811 	 2.468549 	 -2.830597 
H 	 -2.899212 	 -1.861502 	 -1.937760 
H 	 -2.879650 	 -2.937947 	 -0.751854 
H 	 -1.944279 	 5.324770 	 6.471449 
H 	 -0.433307 	 4.897457 	 6.882738 
H 	 -0.293647 	 -1.526362 	 7.255361 
H 	 -0.513967 	 -2.866185 	 6.443281 
H 	 -5.498842 	 5.277264 	 6.213999 
H 	 -6.503650 	 6.434837 	 6.369674 
H 	 -6.627342 	 -1.031498 	 -1.950358 
H 	 -5.331327 	 -1.880787 	 -2.296148 
H 	 -1.346404 	 -6.409038 	 -4.376453 
H 	 -1.471669 	 -4.879435 	 -4.276576 
H 	 -3.640419 	 -0.770093 	 -6.441578 
H 	 -2.851507 	 0.449661 	 -6.099849 
H 	 6.003427 	 1.938429 	 1.528709 
H 	 7.208116 	 1.436529 	 2.535950 
H 	 -2.961272 	 6.710814 	 1.582248 
H 	 -4.441711 	 6.730360 	 2.135035 
H 	 2.376045 	 -4.500982 	 3.742200 
H 	 1.851845 	 -4.043850 	 5.164382 
H 	 -2.860720 	 -6.893454 	 4.870384 
H 	 -3.717203 	 -6.773425 	 6.182335 
H 	 -2.804647 	 -4.048785 	 5.064119 
H 	 -4.236649 	 -4.225849 	 4.506946 
H 	 3.756804 	 5.763701 	 -7.036556 
H 	 2.601704 	 6.600745 	 7.263115 
H 	 4.049766 	 -6.821282 	 -3.091759 
H 	 3.988528 	 -6.249953 	 -1.690550 
H 	 -6.586272 	 1.288811 	 7.387591 
H 	 7.197225 	 0.515244 	 -6.635919 
H 	 -0.230319 	 -5.098623 	 6.626518 
H 	 -0.677725 	 -4.976873 	 5.080468 
H 	 -2.041780 	 4.254205 	 -4.086990 
H 	 -0.554276 	 3.658952 	 -4.118790 
H 	 7.061201 	 5.356900 	 0.226522 
H 	 5.751122 	 5.847806 	 0.810165 
H 	 -3.539939 	 4.720461 	 5.015574 
H 	 -3.711421 	 3.589446 	 6.036980 
H 	 -2.380426 	 -2.515030 	 1.555132 
H 	 -3.143242 	 -2.892544 	 2.909286 
H 	 -6.077359 	 7.397111 	 3.577184 
H 	 -4.735682 	 -6.639776 	 3.564073 
H 	 6.586327 	 5.018055 	 7.372226 
H 	 5.486816 	 3.870136 	 -7.237817 
H 	 2.059024 	 -0.020900 	 4.275904 
H 	 1.747629 	 -1.486795 	 4.339622 
H 	 4.625069 	 3.413457 	 -3.645131 
H 	 5.014409 	 3.810767 	 -5.218632 
H 	 5.250653 	 1.081000 	 -5.268728 
H 	 5.420430 	 -0.440511 	 -5.444170 
H 	 6.000506 	 4.406321 	 -2.287729 
H 	 5.109744 	 3.352601 	 -1.508224 
H 	 0.753400 	 -5.453859 	 -5.735200 
H 	 -0.285306 	 -6.609185 	 -6.184735 
H 	 3.376019 	 2.107836 	 -6.583188 
H 	 4.380363 	 1.217262 	 -7.272628 
H 	 4.084754 	 -6.342942 	 3.783279 
H 	 4.898653 	 -5.918993 	 5.079533 
H 	 -2.590285 	 -4.975920 	 1.070129 
H 	 -3.865716 	 -4.092071 	 0.706979 
H 	 -7.089740 	 2.372869 	 -4.231359 
H 	 -6.969047 	 2.463837 	 -5.755576 
H 	 4.826179 	 -5.833755 	 7.170698 
H 	 5.476000 	 -4.384467 	 6.921885 
H 	 1.492703 	 -0.704907 	 6.593551 
H 	 1.539820 	 0.381818 	 -7.184981 
H 	 5.106457 	 1.182519 	 4.985707 
H 	 4.174047 	 2.049179 	 4.112711 
H 	 1.757542 	 4.599001 	 -7.006358 
H 	 1.271897 	 3.214478 	 -6.577785 
H 	 -3.299785 	 3.272480 	 0.506038 
H 	 -2.697057 	 4.495654 	 -0.251990 
H 	 -1.432436 	 1.700293 	 3.103023 
H 	 -1.024612 	 2.189770 	 4.522187 
H 	 -2.013162 	 -5.801610 	 2.991785 
H 	 -1.136117 	 -6.478641 	 1.785139 
H 	 -2.346793 	 -1.512881 	 6.050721 
H 	 -2.904306 	 -0.998512 	 4.667720 
H 	 -1.061271 	 7.017859 	 5.471392 
H 	 -0.509934 	 7.166103 	 4.090500 
H 	 -3.485244 	 2.660861 	 -6.254905 
H 	 -2.131300 	 2.395661 	 -5.670327 
H 	 1.685874 	 6.804005 	 -5.331827 
H 	 -2.225992 	 6.061235 	 -2.044516 
H 	 -5.382990 	 -1.251681 	 4.828887 
H 	 -5.938174 	 -2.711962 	 4.885820 
H 	 5.227802 	 -1.583026 	 6.329981 
H 	 4.098649 	 -0.907531 	 5.617277 
H 	 3.140685 	 5.871717 	 2.313603 
H 	 3.288470 	 5.811531 	 0.856317 
H 	 -0.407073 	 -2.842657 	 -3.558267 
H 	 -0.311703 	 -2.248051 	 -5.051709 
H 	 -1.881830 	 6.989618 	 -0.909857 
O 	 -7.034798 	 -2.757721 	 -5.060249 
O 	 4.853757 	 -6.435865 	 -0.104614 
O 	 -5.242137 	 -3.571369 	 1.499670 
O 	 5.757403 	 -2.778852 	 -7.137982 
O 	 -6.174069 	 -4.452138 	 4.850125 
O 	 6.817980 	 -5.129593 	 2.795744 
O 	 -3.821117 	 -6.963444 	 -6.561149 
O 	 -6.068870 	 3.393930 	 2.767556 
O 	 -3.903154 	 -5.492828 	 -1.905065 
O 	 -4.854700 	 1.138945 	 3.620924 
O 	 3.372189 	 -2.183420 	 -5.589100 
O 	 -3.404275 	 4.237664 	 3.358442 
O 	 2.323032 	 1.502456 	 3.440927 
O 	 6.929167 	 4.168933 	 4.761381 
O 	 -0.157302 	 -2.471785 	 -1.651315 
O 	 6.745144 	 -2.366191 	 2.958862 
O 	 2.775763 	 -5.599338 	 2.216125 
O 	 -5.465359 	 6.627680 	 -1.166750 
O 	 -2.728565 	 5.654800 	 -3.653772 
O 	 0.797754 	 4.836251 	 -2.505169 
O 	 -2.298833 	 -0.741557 	 -3.286200 
O 	 1.745524 	 2.134043 	 -2.343650 
O 	 7.250840 	 -5.740362 	 -5.321491 
O 	 -5.350462 	 -1.693123 	 -6.905533 
O 	 1.833027 	 -6.969508 	 6.181670 
O 	 0.593545 	 -2.063808 	 2.352207 
O 	 -1.997520 	 0.589569 	 1.687895 
O 	 0.481098 	 -0.414580 	 -4.217992 
O 	 -7.118331 	 0.886115 	 -0.551049 
O 	 6.868164 	 6.281853 	 -3.002076 
O 	 3.965093 	 -3.151305 	 1.257907 
O 	 7.233503 	 6.704191 	 4.042746 
O 	 5.720561 	 -4.069746 	 -2.886578 
O 	 -6.829885 	 3.917418 	 -0.115137 
O 	 -6.414819 	 -6.481617 	 6.889508 
O 	 4.311983 	 -5.967052 	 -5.790457 
O 	 -5.594301 	 -7.209701 	 -4.229545 
O 	 1.082386 	 -5.784842 	 -2.244925 
O 	 0.608105 	 5.989257 	 3.373468 
O 	 4.581798 	 3.020967 	 0.786080 
O 	 -0.142814 	 0.113062 	 -0.365652 
O 	 3.998203 	 5.243108 	 4.861470 
O 	 -4.767348 	 1.573640 	 6.369184 
O 	 6.434198 	 -2.761451 	 0.122546 
O 	 0.047632 	 3.814587 	 1.349549 
O 	 2.025344 	 -4.531048 	 -4.685134 
O 	 -5.307353 	 -0.855647 	 0.533686 
O 	 -4.179866 	 1.909651 	 0.734652 
O 	 -1.453100 	 6.987276 	 -5.502755 
O 	 -4.510985 	 4.365760 	 -5.666291 
O 	 -3.631248 	 -3.954491 	 -7.376729 
O 	 2.483035 	 1.199251 	 0.099040 
O 	 4.437593 	 6.420205 	 -4.220682 
O 	 2.044186 	 2.093788 	 -5.450115 
O 	 0.592601 	 -6.749131 	 0.620681 
O 	 4.482916 	 -1.041125 	 2.869405 
O 	 -6.563242 	 -5.031441 	 -1.750551 
O 	 2.685144 	 -1.040763 	 -2.696427 
O 	 2.673096 	 -3.406656 	 -1.355999 
O 	 1.691892 	 5.690740 	 0.009401 
O 	 -0.671356 	 1.267052 	 6.084082 
O 	 1.764385 	 3.562905 	 5.074407 
O 	 5.817830 	 -0.713309 	 -1.700277 
O 	 -1.877114 	 1.934652 	 -2.011224 
O 	 -3.403687 	 -2.186781 	 -1.165363 
O 	 -0.996633 	 5.614582 	 6.472506 
O 	 -0.922726 	 -2.008520 	 6.680139 
O 	 -6.390743 	 5.477787 	 6.628569 
O 	 -6.191752 	 -1.584596 	 -2.661379 
O 	 -1.654001 	 -5.705766 	 -3.736669 
O 	 -2.727797 	 -0.526419 	 -6.155674 
O 	 6.544384 	 1.194680 	 1.816342 
O 	 -3.823492 	 6.231199 	 1.495498 
O 	 2.403653 	 -3.726584 	 4.398520 
O 	 -3.799434 	 -6.783089 	 5.183012 
O 	 -3.299101 	 -4.233698 	 4.247595 
O 	 2.847355 	 5.962755 	 -6.891895 
O 	 3.885698 	 -5.976793 	 -2.610662 
O 	 7.371249 	 1.355832 	 -7.197638 
O 	 -0.383590 	 -4.474963 	 5.865517 
O 	 -1.485890 	 3.444442 	 -4.318236 
O 	 6.486655 	 6.180160 	 0.266405 
O 	 -3.741242 	 4.559499 	 5.960660 
O 	 -2.524462 	 -2.224961 	 2.514277 
O 	 -5.407337 	 -7.072217 	 2.967810 
O 	 5.747258 	 4.789902 	 -7.006481 
O 	 2.318872 	 -0.824066 	 4.772173 
O 	 4.324383 	 3.725551 	 -4.529414 
O 	 5.533685 	 0.266234 	 -4.758292 
O 	 5.664386 	 3.481900 	 -2.262291 
O 	 0.161142 	 -5.771361 	 -6.486068 
O 	 4.345567 	 2.083396 	 -6.803302 
O 	 4.850043 	 -6.595208 	 4.336195 
O 	 -2.869232 	 -4.310698 	 0.357889 
O 	 -6.806593 	 2.980550 	 -4.940180 
O 	 5.185288 	 -5.204740 	 6.487338 
O 	 1.515463 	 -0.610027 	 -7.326858 
O 	 5.045210 	 2.044727 	 4.568375 
O 	 1.088115 	 3.894450 	 -7.252073 
O 	 -2.465274 	 3.651290 	 0.074236 
O 	 -1.131936 	 2.481316 	 3.584650 
O 	 -2.011457 	 -6.297763 	 2.169662 
O 	 -3.154560 	 -1.087266 	 5.581518 
O 	 -0.960371 	 -7.169315 	 4.774144 
O 	 -2.699489 	 2.131557 	 -6.432173 
O 	 1.122845 	 6.924285 	 -4.536523 
O 	 -6.212887 	 -1.773837 	 4.858587 
O 	 4.989514 	 -0.713041 	 5.963814 
O 	 3.834668 	 5.722988 	 1.639669 
O 	 -0.366122 	 -3.040595 	 -4.480628 
O 	 -1.839409 	 6.058993 	 -1.130257 
K 	 -6.899219 	 -6.187251 	 0.501303 
