333
conformation = 3
H 	 7.278033 	 -3.644066 	 -4.801699 
H 	 -6.884835 	 -2.293718 	 -4.128820 
H 	 3.964039 	 -6.236555 	 0.565966 
H 	 4.805701 	 7.490863 	 0.072991 
H 	 -5.180185 	 -3.430188 	 2.837574 
H 	 -5.479201 	 -2.742231 	 1.507403 
H 	 4.936974 	 -2.628925 	 -6.364674 
H 	 6.446456 	 -2.531433 	 -6.116195 
H 	 -6.402547 	 -5.119310 	 5.627022 
H 	 -6.852694 	 -4.709163 	 4.164342 
H 	 6.027756 	 -5.458496 	 3.529349 
H 	 6.524351 	 -4.161675 	 2.912523 
H 	 -2.949891 	 -7.195386 	 -6.424759 
H 	 -3.591918 	 -5.738473 	 -6.696795 
H 	 -6.852643 	 3.810746 	 3.533243 
H 	 -5.343981 	 3.860483 	 3.062047 
H 	 -3.178328 	 -5.418796 	 -2.464329 
H 	 -3.613125 	 -4.790789 	 -1.205737 
H 	 -5.314798 	 1.638210 	 3.196917 
H 	 -4.045695 	 0.758900 	 3.480497 
H 	 2.942015 	 -2.656258 	 -5.116377 
H 	 2.620941 	 -1.508575 	 -6.067351 
H 	 -2.870464 	 3.552568 	 3.483473 
H 	 -3.389159 	 4.921881 	 2.774435 
H 	 1.915688 	 1.684388 	 2.686060 
H 	 1.666406 	 2.303210 	 4.195470 
H 	 6.183563 	 3.157691 	 4.939048 
H 	 7.202779 	 4.096948 	 5.865344 
H 	 0.810054 	 -2.684893 	 -1.019614 
H 	 -0.443493 	 -1.725308 	 -0.948450 
H 	 5.799824 	 -2.161497 	 3.119844 
H 	 7.147624 	 -2.116520 	 3.837936 
H 	 2.943943 	 -4.615983 	 1.814974 
H 	 1.894357 	 -5.878467 	 1.766309 
H 	 -4.983991 	 6.444938 	 -0.280374 
H 	 -6.295784 	 5.816081 	 -0.871390 
H 	 -2.283532 	 6.330528 	 -4.415435 
H 	 -3.666648 	 5.662576 	 -4.284388 
H 	 -0.423889 	 5.231934 	 -2.090265 
H 	 0.653788 	 5.671534 	 -3.164667 
H 	 -2.740565 	 -0.433992 	 -4.268916 
H 	 -2.417536 	 0.222854 	 -2.839872 
H 	 0.959351 	 2.926356 	 -2.498514 
H 	 1.112559 	 1.398601 	 -2.734072 
H 	 -7.406568 	 -6.066120 	 -4.607931 
H 	 6.016579 	 -5.680751 	 -5.197259 
H 	 -5.931943 	 -1.678311 	 7.032708 
H 	 -6.132494 	 -2.014863 	 -6.382969 
H 	 1.366299 	 -6.566107 	 5.656197 
H 	 0.856287 	 -6.491813 	 7.131829 
H 	 0.837642 	 -2.896217 	 2.572831 
H 	 -0.350683 	 -2.013130 	 2.352664 
H 	 -1.559094 	 0.387534 	 1.068907 
H 	 -2.422239 	 -0.362926 	 2.101859 
H 	 0.979685 	 -0.824099 	 -3.497324 
H 	 -0.445022 	 -0.436087 	 -3.907680 
H 	 7.163673 	 0.831533 	 -1.158448 
H 	 7.096801 	 1.225063 	 0.351020 
H 	 7.357141 	 6.448793 	 -3.374287 
H 	 7.073119 	 6.915422 	 -1.933540 
H 	 3.689533 	 -2.242838 	 1.811903 
H 	 4.554610 	 -3.374015 	 1.079795 
H 	 6.979972 	 5.774851 	 3.966893 
H 	 6.233160 	 7.215958 	 3.956324 
H 	 5.572278 	 -3.636473 	 -1.893875 
H 	 5.271747 	 -4.575936 	 -3.001730 
H 	 -6.747096 	 3.126971 	 -0.236630 
H 	 -6.463513 	 3.927045 	 0.979720 
H 	 -6.075235 	 -6.576315 	 -7.164937 
H 	 7.325849 	 -6.198472 	 7.545472 
H 	 4.022991 	 -6.857222 	 -5.505733 
H 	 3.413131 	 -5.542361 	 -5.299651 
H 	 -5.346339 	 -7.025111 	 -3.186944 
H 	 -4.966823 	 -7.001312 	 -4.704624 
H 	 -0.038587 	 -5.931644 	 -2.468273 
H 	 1.458118 	 -6.409255 	 -2.349809 
H 	 0.191766 	 5.652210 	 4.263655 
H 	 0.304286 	 5.298702 	 2.741649 
H 	 4.388344 	 4.306097 	 1.055839 
H 	 3.691789 	 2.968093 	 0.931318 
H 	 -0.998991 	 0.785155 	 -1.167496 
H 	 0.270207 	 0.784726 	 -0.109164 
H 	 3.886647 	 6.487017 	 5.006189 
H 	 4.607630 	 5.144411 	 5.216990 
H 	 -5.089135 	 1.992360 	 5.514549 
H 	 -4.433936 	 1.085527 	 6.547808 
H 	 6.674981 	 -2.508808 	 0.844819 
H 	 6.157606 	 -2.099388 	 -0.523071 
H 	 0.132216 	 3.121027 	 2.398381 
H 	 -0.726581 	 3.637601 	 1.238773 
H 	 2.120190 	 -4.690177 	 -3.557531 
H 	 1.041311 	 -3.915695 	 -4.221006 
H 	 -6.255039 	 -0.398322 	 0.336133 
H 	 -4.902354 	 -1.056398 	 -0.394468 
H 	 -3.741396 	 1.384874 	 1.296572 
H 	 -4.947338 	 1.289399 	 0.249980 
H 	 -0.026779 	 6.963976 	 -4.673760 
H 	 -1.307324 	 6.449443 	 -6.191257 
H 	 -5.285004 	 3.832420 	 -5.048146 
H 	 -5.452423 	 4.915632 	 -6.017439 
H 	 -2.931898 	 -3.422768 	 -7.290347 
H 	 -4.386852 	 -3.525878 	 -6.728266 
H 	 2.853676 	 0.588763 	 -0.238028 
H 	 2.196969 	 1.882865 	 -0.463578 
H 	 4.110233 	 5.715589 	 -4.177163 
H 	 5.380881 	 6.499655 	 -3.625236 
H 	 2.470603 	 2.620231 	 -4.868535 
H 	 1.419591 	 1.606246 	 -4.607011 
H 	 0.646431 	 7.376234 	 0.605953 
H 	 0.309071 	 -6.381117 	 -0.441279 
H 	 4.783723 	 -0.130722 	 3.169226 
H 	 3.531393 	 -0.917658 	 3.750693 
H 	 -7.094755 	 -4.663680 	 -2.365540 
H 	 -5.610452 	 -5.035586 	 -2.052840 
H 	 2.812738 	 -1.944998 	 -2.407407 
H 	 3.011724 	 -0.883262 	 -3.574305 
H 	 2.324740 	 -4.345630 	 -1.176960 
H 	 2.918836 	 -3.176860 	 -0.335324 
H 	 1.457309 	 5.518481 	 -0.890482 
H 	 0.945278 	 4.830341 	 0.415244 
H 	 -1.611703 	 1.529952 	 6.613461 
H 	 -0.998482 	 0.217816 	 6.129785 
H 	 2.332907 	 4.238368 	 5.037790 
H 	 1.429153 	 3.507530 	 6.139379 
H 	 6.113780 	 -0.872356 	 -2.590042 
H 	 4.825406 	 -0.428461 	 -2.070428 
H 	 -2.180200 	 2.384624 	 -1.236726 
H 	 -1.772805 	 2.381377 	 -2.754727 
H 	 -3.097338 	 -1.302663 	 -1.872925 
H 	 -2.907583 	 -2.552005 	 -0.956236 
H 	 -2.014530 	 5.203008 	 6.285996 
H 	 -0.575994 	 5.210334 	 7.041062 
H 	 -0.174263 	 -1.473976 	 7.048020 
H 	 -0.816764 	 -2.312680 	 6.019881 
H 	 -5.534485 	 5.175665 	 6.203481 
H 	 -6.705803 	 6.116936 	 6.280424 
H 	 -6.744424 	 -1.057339 	 -1.844659 
H 	 -5.768090 	 -2.148190 	 -2.347045 
H 	 -2.180386 	 -6.288337 	 -4.293755 
H 	 -1.636300 	 -4.782845 	 -3.973833 
H 	 -3.831388 	 -0.766037 	 -6.331124 
H 	 -3.144488 	 0.547117 	 -5.990359 
H 	 5.779356 	 1.868330 	 1.846023 
H 	 7.185052 	 1.676631 	 2.632045 
H 	 -3.477502 	 7.070369 	 1.445664 
H 	 -4.803206 	 6.705778 	 2.210149 
H 	 2.368728 	 -4.556037 	 3.845792 
H 	 2.131825 	 -4.196614 	 5.323597 
H 	 -3.003656 	 -7.135723 	 5.068560 
H 	 -4.012823 	 -6.890988 	 6.229736 
H 	 -2.808083 	 -4.422526 	 5.035849 
H 	 -4.111088 	 -4.779482 	 4.392849 
H 	 3.561937 	 5.741193 	 -6.721342 
H 	 2.638823 	 6.825119 	 -7.335735 
H 	 4.258832 	 -6.825115 	 -2.966347 
H 	 3.983728 	 -6.096781 	 -1.599020 
H 	 -6.696307 	 1.736272 	 7.220455 
H 	 -7.291380 	 0.495320 	 -6.745442 
H 	 -0.335983 	 -4.637472 	 6.992446 
H 	 -0.568039 	 -5.408500 	 5.572676 
H 	 -2.131429 	 4.308370 	 -3.931685 
H 	 -0.885493 	 3.640126 	 -4.572484 
H 	 6.750187 	 5.593907 	 0.440404 
H 	 5.735835 	 6.247724 	 1.435380 
H 	 -3.678455 	 4.552116 	 5.199335 
H 	 -3.712541 	 3.719990 	 6.470417 
H 	 -2.994712 	 -2.739139 	 1.954359 
H 	 -2.428891 	 -2.667840 	 3.302213 
H 	 -6.475717 	 7.355067 	 3.355076 
H 	 -5.145446 	 -7.115225 	 3.888665 
H 	 6.338898 	 4.933426 	 -6.510533 
H 	 5.500112 	 3.775131 	 -7.237819 
H 	 1.783724 	 -0.126937 	 4.224908 
H 	 1.639510 	 -1.737329 	 4.281118 
H 	 4.696360 	 3.633675 	 -3.957770 
H 	 4.498202 	 3.818423 	 -5.472419 
H 	 5.188259 	 0.643563 	 -5.307599 
H 	 5.117092 	 -0.814659 	 -4.721521 
H 	 6.376080 	 4.282474 	 -2.181215 
H 	 5.525320 	 3.523655 	 -1.211939 
H 	 0.636154 	 -5.654707 	 -5.584368 
H 	 -0.683713 	 -6.286773 	 -6.123969 
H 	 3.407337 	 1.591029 	 -6.716339 
H 	 4.528242 	 1.419001 	 7.174876 
H 	 3.833598 	 -6.320456 	 3.714044 
H 	 4.570431 	 -6.048543 	 5.111718 
H 	 -2.778317 	 -4.942496 	 0.811405 
H 	 -4.149651 	 -4.191057 	 1.011555 
H 	 -6.842044 	 2.410180 	 -4.240691 
H 	 -7.189776 	 2.421480 	 -5.736381 
H 	 4.808521 	 -5.317793 	 7.535755 
H 	 5.552888 	 -4.372912 	 6.665870 
H 	 1.988872 	 -0.307014 	 6.970860 
H 	 1.230533 	 0.154650 	 -6.489066 
H 	 5.032230 	 1.105509 	 4.853292 
H 	 3.921117 	 2.013663 	 4.218638 
H 	 1.591300 	 4.782645 	 -6.828900 
H 	 0.976642 	 3.399023 	 -6.527546 
H 	 -3.345230 	 3.460921 	 0.607679 
H 	 -2.586217 	 4.668207 	 -0.104121 
H 	 -1.665271 	 1.755675 	 3.057892 
H 	 -1.202357 	 2.194462 	 4.482838 
H 	 -2.179950 	 -6.070858 	 3.033669 
H 	 -1.099044 	 -6.401405 	 1.882826 
H 	 -2.669517 	 -1.190388 	 6.008674 
H 	 -2.876833 	 -1.080338 	 4.553549 
H 	 -1.027801 	 7.183657 	 5.433685 
H 	 -0.462747 	 7.530238 	 4.076659 
H 	 -3.663224 	 2.899153 	 -6.565094 
H 	 -2.556399 	 2.854777 	 -5.502958 
H 	 1.421437 	 6.408386 	 -4.781442 
H 	 -2.317849 	 6.229264 	 -2.072134 
H 	 -5.525358 	 -1.375768 	 4.694564 
H 	 -6.283940 	 -2.664013 	 5.039865 
H 	 5.459557 	 -0.767499 	 6.568569 
H 	 4.399097 	 -1.344430 	 5.711261 
H 	 3.673120 	 5.525198 	 2.717307 
H 	 2.841410 	 5.847904 	 1.483439 
H 	 -0.618109 	 -2.637648 	 -3.455107 
H 	 -0.781488 	 -2.371414 	 -4.964143 
H 	 -1.413515 	 6.880646 	 -0.914584 
O 	 -7.150137 	 -2.791510 	 -4.952678 
O 	 4.632831 	 -6.496857 	 -0.144730 
O 	 -5.527171 	 -3.607574 	 1.971190 
O 	 5.806399 	 -2.642661 	 -6.839172 
O 	 -6.187266 	 -4.538870 	 4.871153 
O 	 6.715638 	 -5.138181 	 2.904368 
O 	 -3.823208 	 -6.685061 	 -6.549574 
O 	 -6.223840 	 3.562366 	 2.831438 
O 	 -3.963656 	 -5.423389 	 -1.814826 
O 	 -4.886337 	 1.027573 	 3.848010 
O 	 3.354213 	 -1.870281 	 -5.511605 
O 	 -3.527662 	 4.327996 	 3.531348 
O 	 2.046238 	 1.529388 	 3.612956 
O 	 6.775794 	 3.930767 	 5.012560 
O 	 -0.111659 	 -2.599184 	 -1.276011 
O 	 6.704410 	 -2.457589 	 3.022257 
O 	 2.621467 	 -5.468950 	 2.211460 
O 	 -5.681045 	 6.558868 	 -0.971342 
O 	 -2.853600 	 5.769027 	 -3.789963 
O 	 0.383618 	 4.865705 	 -2.513046 
O 	 -2.228280 	 -0.534278 	 -3.433346 
O 	 1.639558 	 2.170508 	 -2.507626 
O 	 7.004422 	 -5.692440 	 -5.306481 
O 	 -5.533712 	 -1.533414 	 -6.973743 
O 	 1.551376 	 -6.879371 	 6.555104 
O 	 0.608419 	 -1.930596 	 2.462041 
O 	 -2.151474 	 0.566003 	 1.834480 
O 	 0.479387 	 -0.235966 	 -4.125172 
O 	 -7.155736 	 1.145511 	 -0.442148 
O 	 6.828553 	 6.248174 	 -2.583824 
O 	 3.657237 	 -3.119544 	 1.354029 
O 	 7.121207 	 6.731987 	 4.084990 
O 	 5.917483 	 -3.857042 	 -2.780415 
O 	 -6.844803 	 4.034164 	 0.103247 
O 	 -6.763225 	 -6.571861 	 7.052514 
O 	 4.169432 	 -5.974319 	 -5.740210 
O 	 -5.739754 	 -7.225610 	 -4.099180 
O 	 0.756076 	 -5.917053 	 -1.910185 
O 	 0.605726 	 5.984185 	 3.426206 
O 	 4.615613 	 3.327080 	 0.894050 
O 	 -0.542038 	 0.311637 	 -0.414367 
O 	 3.773925 	 5.541105 	 4.922683 
O 	 -4.879069 	 1.914889 	 6.428285 
O 	 6.230034 	 -2.891464 	 0.064872 
O 	 0.178572 	 3.756326 	 1.611671 
O 	 1.866174 	 -4.435249 	 -4.442948 
O 	 -5.415613 	 -0.871489 	 0.435770 
O 	 -4.419494 	 1.881457 	 0.776958 
O 	 -1.485164 	 7.045073 	 -5.444685 
O 	 -4.720241 	 4.403425 	 -5.654564 
O 	 -3.670451 	 -4.048253 	 -7.167721 
O 	 2.277449 	 1.227041 	 0.290031 
O 	 4.483790 	 6.573904 	 -4.093617 
O 	 1.781377 	 2.132454 	 -5.377106 
O 	 0.340332 	 -6.576493 	 0.586143 
O 	 4.198512 	 -0.852407 	 3.032548 
O 	 -6.562530 	 -5.178390 	 -1.773202 
O 	 2.776183 	 -0.979711 	 -2.616516 
O 	 2.565481 	 -3.413624 	 -1.214540 
O 	 1.402080 	 5.654101 	 0.062760 
O 	 -0.881028 	 1.180997 	 6.047037 
O 	 1.667848 	 3.557930 	 5.198284 
O 	 5.767496 	 -0.550611 	 -1.747543 
O 	 -1.995208 	 1.816081 	 -1.981883 
O 	 -3.589328 	 -1.966604 	 -1.380663 
O 	 -1.211669 	 5.771210 	 6.518836 
O 	 -1.045950 	 -1.872864 	 6.836241 
O 	 -6.424458 	 5.218457 	 6.603075 
O 	 -6.400459 	 -1.480117 	 -2.688373 
O 	 -2.000073 	 -5.619992 	 -3.577761 
O 	 -2.958547 	 -0.424569 	 -5.988965 
O 	 6.546021 	 1.242698 	 1.964640 
O 	 -4.151465 	 6.343883 	 1.502928 
O 	 2.468917 	 -3.785493 	 4.468558 
O 	 -3.910610 	 -6.810011 	 5.237276 
O 	 -3.396211 	 -4.104662 	 4.320884 
O 	 2.706143 	 6.130261 	 -6.614441 
O 	 3.754652 	 -6.039607 	 -2.605924 
O 	 -7.445686 	 1.392849 	 -7.190516 
O 	 -0.395056 	 -4.505920 	 5.993134 
O 	 -1.768479 	 3.426138 	 -4.194002 
O 	 6.304082 	 6.446987 	 0.674908 
O 	 -3.697521 	 4.667318 	 6.214733 
O 	 -2.649095 	 -2.052703 	 2.567849 
O 	 -5.635144 	 -7.072177 	 3.076830 
O 	 5.476992 	 4.735352 	 -7.002848 
O 	 2.056492 	 -0.957432 	 4.663949 
O 	 3.995231 	 3.761270 	 -4.628426 
O 	 5.595117 	 0.044886 	 -4.612522 
O 	 5.679686 	 3.604649 	 -2.144510 
O 	 -0.009377 	 -5.598886 	 -6.337249 
O 	 4.372364 	 1.775630 	 -6.832784 
O 	 4.566904 	 -6.591211 	 4.300897 
O 	 -3.301244 	 -4.096746 	 0.657853 
O 	 -6.967369 	 3.070222 	 -4.947635 
O 	 5.175256 	 -5.262192 	 6.597927 
O 	 1.588518 	 -0.585830 	 -7.067368 
O 	 4.836490 	 2.002439 	 4.577728 
O 	 0.901149 	 4.133301 	 -7.153342 
O 	 -2.492471 	 3.769575 	 0.186061 
O 	 -1.440759 	 2.560604 	 3.620231 
O 	 -2.081901 	 -6.287366 	 2.085985 
O 	 -3.317391 	 -0.944572 	 5.376607 
O 	 -1.016416 	 -6.960151 	 4.770614 
O 	 -2.984770 	 2.302143 	 -6.253859 
O 	 0.873809 	 6.904604 	 -4.131901 
O 	 -6.419390 	 -1.679578 	 4.986430 
O 	 4.832880 	 -0.491991 	 5.885306 
O 	 3.755740 	 5.774855 	 1.762339 
O 	 -0.612969 	 -3.092877 	 -4.305226 
O 	 -1.766837 	 6.039604 	 -1.248766 
K 	 -6.972320 	 -6.076360 	 0.595088 
