333
conformation = 6
H 	 -9.212238 	 -653.661178 	 -101.395930 
H 	 -8.532389 	 -652.325622 	 -100.763846 
H 	 2.349245 	 343.738911 	 -96.097930 
H 	 3.276546 	 342.590055 	 -96.606432 
H 	 -6.804253 	 -653.423804 	 891.281872 
H 	 -7.124147 	 -652.722108 	 -95.100095 
H 	 3.321294 	 -652.660071 	 -102.959500 
H 	 -10.023281 	 -652.531516 	 -102.793916 
H 	 -8.024591 	 -655.117169 	 -105.913170 
H 	 -8.517341 	 -654.718324 	 -107.359750 
H 	 -10.501493 	 -655.479007 	 -107.992429 
H 	 -9.995985 	 -654.169934 	 891.410850 
H 	 -4.580863 	 342.796675 	 -103.049878 
H 	 -5.166843 	 344.230390 	 -103.310629 
H 	 -8.487297 	 338.839339 	 891.990304 
H 	 -6.947015 	 339.019291 	 891.513265 
H 	 -4.811565 	 -655.409263 	 -99.107250 
H 	 -5.250491 	 -654.728028 	 -97.835538 
H 	 -6.951514 	 336.742780 	 891.674998 
H 	 -5.643816 	 335.863816 	 891.937444 
H 	 1.293538 	 -652.660746 	 -101.750803 
H 	 0.969476 	 -651.509065 	 -102.680898 
H 	 -4.487101 	 338.644394 	 891.969572 
H 	 -5.042741 	 340.014776 	 891.216384 
H 	 0.273054 	 336.803744 	 891.131139 
H 	 0.059367 	 337.360706 	 -107.355667 
H 	 -10.320815 	 338.275885 	 -106.588546 
H 	 -9.310163 	 339.268581 	 -105.672008 
H 	 -0.796012 	 -652.696754 	 -97.691538 
H 	 -2.048205 	 -651.716926 	 -97.557171 
H 	 4.156238 	 -652.092578 	 891.572395 
H 	 -9.385823 	 -652.113726 	 -107.677811 
H 	 1.294661 	 -654.597401 	 -94.868925 
H 	 0.289650 	 344.114830 	 -94.894920 
H 	 -6.572283 	 341.568612 	 -96.937475 
H 	 -7.913328 	 340.903627 	 -97.505888 
H 	 -3.922515 	 341.438530 	 -101.088208 
H 	 -5.322509 	 340.713795 	 -100.929135 
H 	 -2.049199 	 340.305770 	 -98.764238 
H 	 -0.960411 	 340.732251 	 -99.788051 
H 	 -4.342033 	 334.697008 	 -100.918020 
H 	 -4.014554 	 335.313908 	 -99.475839 
H 	 -0.661476 	 338.010332 	 -99.118043 
H 	 -0.513591 	 336.442346 	 -99.385730 
H 	 -9.026609 	 343.903319 	 -101.179426 
H 	 989.492462 	 344.319848 	 -101.847209 
H 	 -7.562063 	 -651.741882 	 -104.503788 
H 	 -7.729931 	 -652.022240 	 -102.968073 
H 	 -0.271826 	 343.414477 	 -105.893581 
H 	 -0.804058 	 343.516290 	 -104.428366 
H 	 -0.810947 	 -652.864657 	 891.066309 
H 	 -1.967994 	 -651.982926 	 890.748212 
H 	 -3.183810 	 335.478532 	 -95.558931 
H 	 -4.007147 	 334.762203 	 890.508435 
H 	 -0.693710 	 -650.835092 	 -100.124453 
H 	 -2.077474 	 -650.444663 	 -100.558849 
H 	 -9.323308 	 335.916999 	 -97.813387 
H 	 -9.418285 	 336.331135 	 -96.308834 
H 	 -9.188140 	 341.521160 	 -100.034490 
H 	 -9.463944 	 342.025682 	 -98.576405 
H 	 2.112739 	 -652.211862 	 -94.806639 
H 	 2.955198 	 -653.348532 	 -95.564975 
H 	 -9.534855 	 340.874175 	 -107.608282 
H 	 -10.247024 	 342.274969 	 -107.553941 
H 	 3.938154 	 -653.668688 	 -98.544563 
H 	 3.644383 	 -654.596629 	 -99.632994 
H 	 -8.446148 	 338.208346 	 -96.911498 
H 	 -8.107354 	 339.022678 	 -95.671216 
H 	 -7.697137 	 343.404950 	 -103.835413 
H 	 -9.135488 	 343.755392 	 -103.967467 
H 	 2.383182 	 343.111246 	 -102.151466 
H 	 1.789616 	 344.464100 	 -101.998463 
H 	 -6.961500 	 342.924176 	 -99.834878 
H 	 -6.610142 	 343.032380 	 -101.340868 
H 	 -1.653796 	 344.079119 	 -99.133741 
H 	 -0.168936 	 343.542921 	 -99.024078 
H 	 -1.436462 	 340.779320 	 -107.337124 
H 	 -1.348778 	 340.404133 	 891.219598 
H 	 2.805408 	 339.378094 	 -95.628271 
H 	 2.039534 	 338.098716 	 -95.718130 
H 	 -2.612869 	 335.919347 	 -97.820996 
H 	 -1.333993 	 335.813586 	 -96.748183 
H 	 2.294195 	 341.611516 	 -106.506484 
H 	 2.959731 	 340.225907 	 -106.320108 
H 	 -6.670107 	 337.095294 	 -106.054880 
H 	 -6.062362 	 336.144264 	 -104.987317 
H 	 -9.836214 	 -652.475182 	 -95.786072 
H 	 -10.356510 	 -652.122574 	 -97.206167 
H 	 -1.504805 	 338.255691 	 890.828968 
H 	 -2.377740 	 338.726734 	 -95.388479 
H 	 0.512854 	 -654.666774 	 -100.207180 
H 	 -0.607148 	 -653.913887 	 -100.937293 
H 	 -7.865167 	 334.697780 	 -96.276933 
H 	 -6.574192 	 -651.026919 	 -97.014201 
H 	 -5.361228 	 336.462066 	 -95.389860 
H 	 -6.590875 	 336.362372 	 -96.373093 
H 	 -1.623378 	 342.051926 	 -101.329176 
H 	 -2.923850 	 341.567782 	 -102.856366 
H 	 -6.891835 	 338.918994 	 -101.776812 
H 	 -7.052301 	 340.005669 	 -102.673926 
H 	 -4.561103 	 -653.417339 	 -103.940101 
H 	 -6.020442 	 -653.533357 	 -103.421764 
H 	 1.232662 	 335.624204 	 -96.855233 
H 	 0.518129 	 336.977968 	 -97.080458 
H 	 2.448320 	 340.795007 	 -100.829615 
H 	 3.750510 	 341.540981 	 -100.253758 
H 	 0.838968 	 337.700333 	 -101.537610 
H 	 -0.221611 	 336.708599 	 -101.284883 
H 	 -1.003309 	 342.473711 	 -96.066858 
H 	 -1.272713 	 343.645177 	 -97.009645 
H 	 3.183999 	 334.962569 	 891.640324 
H 	 1.933900 	 -650.921379 	 -107.808732 
H 	 -8.697665 	 -654.652701 	 -98.994856 
H 	 -7.207480 	 -655.088329 	 -98.674050 
H 	 1.157435 	 -651.945312 	 -99.102350 
H 	 1.399031 	 -650.874793 	 -100.192404 
H 	 0.668291 	 -654.329719 	 -97.851640 
H 	 1.283094 	 -653.185001 	 -96.986637 
H 	 -0.153354 	 340.608898 	 -97.558812 
H 	 -0.662268 	 339.965411 	 -96.249800 
H 	 -3.147559 	 336.684659 	 -104.920829 
H 	 -2.581458 	 335.322747 	 -105.426798 
H 	 0.751524 	 339.369728 	 -106.476950 
H 	 -0.183935 	 338.598402 	 -105.415002 
H 	 -10.375937 	 -650.900705 	 -99.222793 
H 	 3.197741 	 -650.474146 	 -98.609735 
H 	 -3.801251 	 337.510393 	 -97.879964 
H 	 -3.364196 	 337.504513 	 -99.397505 
H 	 -4.700263 	 -651.330514 	 -98.518601 
H 	 -4.516504 	 -652.565234 	 -97.552483 
H 	 -3.589725 	 340.291303 	 -105.268361 
H 	 -2.179355 	 340.295194 	 -104.571510 
H 	 -1.795034 	 -651.469952 	 -104.494346 
H 	 -2.442390 	 -652.342629 	 -105.539889 
H 	 -7.142549 	 340.269625 	 -105.329158 
H 	 -8.343244 	 341.219425 	 -105.255996 
H 	 -8.349331 	 -651.053468 	 -98.509444 
H 	 -7.402545 	 -652.173163 	 -98.985552 
H 	 -3.822430 	 343.708126 	 -100.901051 
H 	 -3.252871 	 -654.825563 	 -100.615744 
H 	 -5.439254 	 -650.819873 	 -102.990302 
H 	 -4.746274 	 335.666812 	 -102.637530 
H 	 4.173446 	 336.997922 	 -94.774345 
H 	 -9.363262 	 336.779075 	 891.051418 
H 	 -5.121808 	 342.157113 	 -95.185191 
H 	 -6.428468 	 341.795228 	 890.684005 
H 	 0.767976 	 -654.558514 	 -107.669555 
H 	 0.538078 	 -654.152555 	 -106.237767 
H 	 -4.622929 	 342.900919 	 -106.430346 
H 	 -5.647013 	 343.137215 	 -105.317319 
H 	 -4.458903 	 -654.471361 	 -106.513252 
H 	 -5.717821 	 -654.816399 	 -107.139575 
H 	 1.979504 	 340.806329 	 -103.380953 
H 	 1.021449 	 341.901333 	 -103.967444 
H 	 2.572827 	 343.128255 	 -99.624559 
H 	 2.355186 	 343.913099 	 -98.261108 
H 	 -8.336292 	 336.781125 	 -104.371101 
H 	 -8.909103 	 335.629091 	 -103.367699 
H 	 -1.986981 	 -654.651414 	 -104.559493 
H 	 -2.132090 	 -655.419458 	 -105.956469 
H 	 -3.741528 	 339.430597 	 -100.565156 
H 	 -2.487446 	 338.732930 	 -101.172722 
H 	 -9.742446 	 340.711463 	 -96.250894 
H 	 4.152970 	 341.362828 	 -95.213616 
H 	 -5.340533 	 339.611602 	 -106.369782 
H 	 -5.362585 	 338.799778 	 -105.064818 
H 	 -4.571059 	 -652.782858 	 -94.640841 
H 	 -4.050727 	 -652.620234 	 891.790535 
H 	 -8.063469 	 342.395728 	 891.751177 
H 	 -6.754034 	 342.821641 	 -107.643975 
H 	 -10.148830 	 340.033509 	 -103.184550 
H 	 3.904027 	 338.886350 	 -103.855858 
H 	 0.162916 	 335.019949 	 -107.307769 
H 	 0.029186 	 -651.726433 	 -107.249945 
H 	 3.120881 	 338.773269 	 -100.611502 
H 	 2.950309 	 338.936953 	 -102.061132 
H 	 3.542336 	 335.734141 	 -101.930418 
H 	 3.532460 	 -650.825419 	 -101.321826 
H 	 -10.164880 	 339.394548 	 -98.808834 
H 	 3.890185 	 338.677197 	 -97.834330 
H 	 -0.964003 	 344.366133 	 -102.284158 
H 	 -2.309852 	 343.730791 	 -102.680605 
H 	 1.812746 	 336.681103 	 -103.345964 
H 	 2.936472 	 336.562621 	 -104.380017 
H 	 2.212535 	 343.673355 	 -107.817515 
H 	 2.975967 	 343.950820 	 -106.452253 
H 	 -4.401818 	 -654.936017 	 -95.859135 
H 	 -5.820551 	 -654.198167 	 -95.643121 
H 	 -8.461400 	 337.455776 	 -100.900106 
H 	 -8.849623 	 337.559823 	 -102.375450 
H 	 3.211703 	 -655.290001 	 -104.013824 
H 	 3.868542 	 -654.354336 	 -104.874532 
H 	 0.392381 	 334.813880 	 -104.573560 
H 	 -0.406160 	 335.256634 	 -103.166648 
H 	 3.433759 	 336.191046 	 -106.656765 
H 	 2.314716 	 337.100976 	 -107.316863 
H 	 -0.028824 	 339.869780 	 -103.494417 
H 	 -0.648821 	 338.466491 	 -103.165130 
H 	 -4.943678 	 338.539976 	 -96.050621 
H 	 -4.197217 	 339.815772 	 -96.773569 
H 	 -3.281529 	 336.863324 	 891.500990 
H 	 -2.788216 	 337.280470 	 -107.043571 
H 	 -3.754583 	 343.882894 	 891.510860 
H 	 -2.712675 	 343.611289 	 -94.726744 
H 	 -4.256182 	 -651.222061 	 -105.511306 
H 	 -4.482818 	 -651.104730 	 -106.987852 
H 	 -2.626238 	 342.310528 	 -106.108599 
H 	 -2.122096 	 342.619490 	 -107.494803 
H 	 -5.278774 	 338.026412 	 -103.259746 
H 	 -4.139987 	 337.947850 	 -102.194498 
H 	 -0.134301 	 341.582689 	 -101.439867 
H 	 -3.961803 	 341.330200 	 -98.705595 
H 	 -7.154075 	 -651.372051 	 -106.835087 
H 	 -7.916480 	 -652.684540 	 -106.517433 
H 	 3.847083 	 -650.791495 	 -104.962386 
H 	 2.747649 	 -651.311912 	 -105.863365 
H 	 2.074602 	 340.622804 	 891.202127 
H 	 1.177605 	 340.942077 	 -95.209248 
H 	 -2.213563 	 -652.542391 	 -100.102844 
H 	 -2.379927 	 -652.363902 	 -101.588317 
H 	 -3.031621 	 341.942739 	 -97.529061 
O 	 -8.769534 	 -652.786159 	 -101.597699 
O 	 3.016839 	 343.503834 	 -96.789729 
O 	 -7.130005 	 -653.612362 	 -94.695213 
O 	 4.181916 	 -652.656304 	 -103.490439 
O 	 -7.807046 	 -654.534157 	 -106.671222 
O 	 -9.799718 	 -655.139394 	 891.353560 
O 	 -5.445265 	 343.293736 	 -103.191699 
O 	 -7.833775 	 338.652068 	 891.286821 
O 	 -5.583767 	 -655.431353 	 -98.460057 
O 	 -6.509433 	 336.132511 	 -107.703715 
O 	 1.730812 	 -651.888275 	 -102.164268 
O 	 -5.141635 	 339.419180 	 891.983968 
O 	 0.436769 	 336.624516 	 -107.933310 
O 	 -9.740171 	 339.040233 	 -106.533799 
O 	 -1.735319 	 -652.597396 	 -97.934791 
O 	 -9.809673 	 -652.461545 	 891.480802 
O 	 1.005408 	 -655.475154 	 890.676146 
O 	 -7.294041 	 341.663471 	 -97.623850 
O 	 -4.462268 	 340.859017 	 -100.419103 
O 	 -1.216266 	 339.966833 	 -99.153132 
O 	 -3.861475 	 -650.552144 	 -100.062073 
O 	 0.022896 	 337.270635 	 -99.143938 
O 	 -9.505111 	 344.299351 	 -101.949690 
O 	 -7.146036 	 -651.540407 	 -103.611527 
O 	 -0.056801 	 343.112806 	 -105.007191 
O 	 -1.014661 	 -651.940731 	 890.919666 
O 	 -3.769711 	 335.670934 	 -94.812435 
O 	 -1.138533 	 334.840282 	 -100.769972 
O 	 -8.776483 	 336.223739 	 -97.083451 
O 	 -9.698995 	 341.347900 	 -99.247833 
O 	 2.049191 	 -653.125671 	 -95.284934 
O 	 -9.389549 	 341.834323 	 -107.454877 
O 	 4.284160 	 -653.871164 	 -99.426191 
O 	 -8.462756 	 339.117259 	 -96.547058 
O 	 -8.371554 	 343.433703 	 -104.499953 
O 	 2.553452 	 344.024743 	 -102.380286 
O 	 -7.352709 	 342.776182 	 -100.750079 
O 	 -0.845578 	 344.087397 	 -98.561617 
O 	 -1.013268 	 341.081327 	 891.884299 
O 	 2.986529 	 338.408380 	 -95.747483 
O 	 -2.142551 	 335.401371 	 -97.054583 
O 	 2.160683 	 340.617592 	 -106.618774 
O 	 -6.495574 	 336.993653 	 -105.110839 
O 	 -10.282821 	 -652.887851 	 -96.573426 
O 	 -1.442040 	 338.859486 	 -95.043760 
O 	 0.251838 	 -654.452216 	 -101.091311 
O 	 -7.030904 	 -650.865853 	 -96.207191 
O 	 -6.025162 	 336.979768 	 -95.865851 
O 	 -3.111165 	 342.134652 	 -102.084099 
O 	 -6.334441 	 339.495236 	 -102.290954 
O 	 -5.295747 	 -654.046394 	 -103.819020 
O 	 0.670172 	 336.324378 	 -96.361578 
O 	 2.869096 	 341.660399 	 -100.738690 
O 	 0.176561 	 337.230116 	 -102.016117 
O 	 -1.268324 	 343.410574 	 -96.061723 
O 	 2.586233 	 -650.867846 	 891.488639 
O 	 -8.183515 	 -655.173290 	 -98.407345 
O 	 1.141453 	 -650.989682 	 -99.262386 
O 	 0.952098 	 -653.412424 	 -97.864410 
O 	 -0.206264 	 340.751811 	 -96.577778 
O 	 -2.499572 	 336.278393 	 -105.493703 
O 	 0.048501 	 338.648357 	 -106.348489 
O 	 4.148072 	 -650.555059 	 -98.386504 
O 	 -3.616009 	 336.913210 	 -98.623236 
O 	 -5.199611 	 -651.982039 	 -98.007117 
O 	 -2.828375 	 340.858006 	 -105.022564 
O 	 -2.669594 	 -651.880420 	 -104.710423 
O 	 -8.046257 	 340.326553 	 -104.942331 
O 	 -8.015330 	 -651.488181 	 -99.330201 
O 	 -3.609484 	 344.371076 	 -100.227252 
O 	 -4.567926 	 -650.430888 	 -102.638808 
O 	 -9.970705 	 336.334043 	 -94.686582 
O 	 -5.762383 	 341.435233 	 -95.135274 
O 	 0.841701 	 -653.788344 	 -107.075676 
O 	 -5.526466 	 343.191398 	 -106.312188 
O 	 -5.019104 	 -654.108727 	 -107.224229 
O 	 1.085331 	 341.217949 	 -103.271685 
O 	 2.144576 	 343.961995 	 -99.233665 
O 	 -9.074997 	 336.486726 	 -103.826558 
O 	 -2.017020 	 -654.507412 	 -105.555490 
O 	 -3.390044 	 338.524897 	 -100.848910 
O 	 -10.217569 	 341.530852 	 -95.985187 
O 	 -5.319200 	 339.763181 	 -105.339504 
O 	 -4.274974 	 -652.065724 	 891.024372 
O 	 -7.247502 	 342.931021 	 891.533891 
O 	 3.866074 	 339.838242 	 -103.643014 
O 	 0.445662 	 -650.959306 	 -106.877518 
O 	 2.389460 	 338.855600 	 -101.271177 
O 	 3.966626 	 335.158680 	 -101.261735 
O 	 4.053368 	 338.693068 	 -98.796474 
O 	 -1.621971 	 344.390589 	 -102.982150 
O 	 2.737484 	 336.892468 	 -103.464687 
O 	 2.959351 	 343.411167 	 -107.236434 
O 	 -4.899900 	 -654.114687 	 -96.003024 
O 	 -8.575194 	 338.168655 	 -101.588070 
O 	 3.552400 	 -655.265583 	 -104.948623 
O 	 -0.036404 	 -650.590421 	 -103.718623 
O 	 3.222815 	 337.109273 	 -106.967199 
O 	 -0.707108 	 339.220169 	 -103.797681 
O 	 -4.124137 	 338.859403 	 -96.458336 
O 	 -3.049492 	 337.654291 	 -107.918185 
O 	 -3.704174 	 343.712055 	 890.556856 
O 	 -4.928414 	 -650.960737 	 -106.152851 
O 	 -2.640505 	 343.026629 	 -106.771586 
O 	 -4.596506 	 337.393279 	 -102.890939 
O 	 -0.739715 	 342.001970 	 -100.796152 
O 	 -8.032742 	 -651.684104 	 -106.566556 
O 	 3.216049 	 -650.510356 	 -105.655945 
O 	 2.134998 	 340.867373 	 -94.891552 
O 	 -2.222358 	 -653.088511 	 -100.958757 
O 	 -3.394293 	 341.138425 	 -97.882706 
K 	 -8.592397 	 343.913283 	 -96.054226 
