333
conformation = 27
H 	 -7.107874 	 -3.744436 	 -4.926144 
H 	 -7.170768 	 -2.226812 	 -4.214462 
H 	 4.229864 	 -6.698818 	 0.611013 
H 	 5.369407 	 -7.250077 	 -0.166751 
H 	 -5.192926 	 -3.703653 	 2.661010 
H 	 -5.641031 	 -2.689254 	 1.495974 
H 	 5.156666 	 -2.597631 	 -6.323590 
H 	 6.656390 	 -2.668295 	 -6.502858 
H 	 -6.169883 	 -5.050548 	 5.624211 
H 	 -6.742069 	 -4.935125 	 4.159029 
H 	 6.074046 	 -5.627153 	 3.211016 
H 	 6.625614 	 -4.169718 	 2.936044 
H 	 -3.075731 	 7.550471 	 -6.115513 
H 	 -3.531882 	 -5.910070 	 -6.625695 
H 	 -6.680339 	 3.470543 	 3.552570 
H 	 -5.287891 	 3.927299 	 3.061536 
H 	 -3.253700 	 -5.329622 	 -2.614318 
H 	 -3.736235 	 -4.713796 	 -1.319968 
H 	 -5.162825 	 1.747371 	 3.048307 
H 	 -3.963959 	 0.944967 	 3.353581 
H 	 2.875730 	 -2.782069 	 -5.210781 
H 	 2.749307 	 -1.464550 	 -6.091471 
H 	 -2.611382 	 3.726978 	 3.391816 
H 	 -3.384500 	 4.861458 	 2.635269 
H 	 1.910089 	 1.666541 	 2.602494 
H 	 1.987374 	 2.252608 	 4.077615 
H 	 6.255301 	 3.334146 	 5.248281 
H 	 7.429221 	 4.367200 	 5.605748 
H 	 0.842084 	 -2.837417 	 -1.474650 
H 	 -0.141757 	 -1.742207 	 -0.979643 
H 	 5.994080 	 -1.876638 	 2.954900 
H 	 7.456513 	 -2.025864 	 3.505043 
H 	 2.964118 	 -4.643715 	 1.870627 
H 	 1.944872 	 -5.972223 	 1.688980 
H 	 -4.823819 	 6.676627 	 -0.492910 
H 	 -5.805436 	 5.651339 	 -1.010767 
H 	 -2.257672 	 6.099353 	 -4.572809 
H 	 -3.559581 	 5.324873 	 -4.025954 
H 	 -0.293501 	 5.067435 	 -2.261627 
H 	 0.796617 	 5.453951 	 -3.271750 
H 	 -2.567495 	 -0.634787 	 -4.339070 
H 	 -2.221349 	 0.254765 	 -3.014845 
H 	 1.088582 	 2.882566 	 -2.553653 
H 	 1.232469 	 1.365264 	 -2.684443 
H 	 -7.405387 	 -6.280016 	 -4.646613 
H 	 6.178663 	 -5.794450 	 -5.336547 
H 	 -5.866922 	 -1.946514 	 7.126012 
H 	 -5.884271 	 -2.011202 	 -6.229476 
H 	 1.354501 	 -6.903115 	 5.424499 
H 	 1.079882 	 -6.575522 	 6.945634 
H 	 0.608194 	 -2.957697 	 2.725535 
H 	 -0.233277 	 -1.959988 	 1.932603 
H 	 -1.424258 	 0.650248 	 0.940534 
H 	 -2.214383 	 -0.407021 	 1.925153 
H 	 0.946109 	 -0.755503 	 -3.368026 
H 	 -0.423535 	 -0.254928 	 -3.979122 
H 	 7.098362 	 0.845196 	 -1.189950 
H 	 7.276229 	 1.010909 	 0.301489 
H 	 -7.275711 	 6.265543 	 -3.438655 
H 	 7.057336 	 6.935964 	 -2.208914 
H 	 3.830096 	 -2.399481 	 1.883645 
H 	 4.712143 	 -3.177206 	 0.812412 
H 	 7.017206 	 5.752793 	 4.026441 
H 	 6.379095 	 7.208139 	 4.200711 
H 	 5.741861 	 -3.892079 	 -1.909424 
H 	 5.289941 	 -4.784465 	 -3.057369 
H 	 -7.207188 	 3.117777 	 -0.412880 
H 	 -6.575215 	 3.593703 	 0.895856 
H 	 -5.727848 	 -6.791675 	 7.335408 
H 	 -7.238942 	 -6.398508 	 -7.224137 
H 	 4.101910 	 -6.910111 	 -5.503752 
H 	 3.414242 	 -5.494573 	 -5.661796 
H 	 -5.124336 	 7.439266 	 -3.406319 
H 	 -4.945766 	 -6.847867 	 -4.823832 
H 	 0.123337 	 -5.715850 	 -2.534829 
H 	 1.360986 	 -6.655303 	 -2.528097 
H 	 0.446569 	 5.482300 	 4.218634 
H 	 0.350028 	 5.393423 	 2.617811 
H 	 4.583776 	 4.129846 	 1.017583 
H 	 3.680627 	 2.897492 	 0.724508 
H 	 -0.593127 	 0.972140 	 -0.955215 
H 	 0.634073 	 0.302678 	 -0.216626 
H 	 4.084373 	 6.293008 	 4.945702 
H 	 4.715148 	 4.882524 	 5.191575 
H 	 -4.692481 	 1.704852 	 5.366549 
H 	 -4.427600 	 0.864694 	 6.636812 
H 	 6.814910 	 -2.422851 	 0.777407 
H 	 6.246141 	 -2.113030 	 -0.582169 
H 	 0.084226 	 3.397517 	 2.365084 
H 	 -0.709782 	 3.767269 	 1.070851 
H 	 2.146100 	 -4.661005 	 -3.626026 
H 	 1.145364 	 -4.028487 	 -4.535412 
H 	 -6.096788 	 -0.293719 	 0.138303 
H 	 -4.808564 	 -1.097715 	 -0.442434 
H 	 -3.473733 	 1.228575 	 0.807523 
H 	 -5.019774 	 1.385437 	 0.407867 
H 	 0.185727 	 6.860945 	 -4.921767 
H 	 -1.356614 	 6.572445 	 -6.387398 
H 	 -5.334183 	 3.622988 	 -5.615194 
H 	 -4.966185 	 4.947798 	 -6.377295 
H 	 -2.911025 	 -3.386483 	 7.490830 
H 	 -4.430130 	 -3.441371 	 -7.298317 
H 	 2.766951 	 0.348452 	 -0.163573 
H 	 2.167575 	 1.508557 	 -0.747759 
H 	 3.996334 	 5.680773 	 -4.394083 
H 	 5.245225 	 6.179260 	 -3.534319 
H 	 2.652548 	 2.561045 	 -4.852409 
H 	 1.455636 	 1.530117 	 -4.804356 
H 	 0.738816 	 7.279364 	 0.243420 
H 	 0.760218 	 -6.171838 	 -0.304406 
H 	 4.830202 	 -0.152844 	 2.987005 
H 	 3.529869 	 -0.905671 	 3.540969 
H 	 -6.928812 	 -4.528718 	 -2.413972 
H 	 -5.626998 	 -5.339425 	 -2.151445 
H 	 2.708220 	 -2.042161 	 -2.584195 
H 	 3.238224 	 -0.868845 	 -3.544327 
H 	 2.194060 	 -4.265589 	 -1.454168 
H 	 2.955018 	 -3.384143 	 -0.365260 
H 	 1.434328 	 5.441734 	 -0.952234 
H 	 1.073211 	 4.928624 	 0.506981 
H 	 -1.100776 	 1.557187 	 6.858693 
H 	 -1.067869 	 0.267569 	 6.118988 
H 	 2.426409 	 4.168816 	 5.035690 
H 	 1.367152 	 3.481616 	 6.034824 
H 	 5.928776 	 -0.879945 	 -2.686703 
H 	 4.866841 	 -0.784182 	 -1.728233 
H 	 -2.368404 	 2.446653 	 -1.373637 
H 	 -1.795201 	 2.382330 	 -2.841551 
H 	 -2.909748 	 -1.953145 	 -2.123428 
H 	 -2.913825 	 -2.570824 	 -0.659543 
H 	 -1.956176 	 5.189141 	 6.355793 
H 	 -0.338149 	 5.002636 	 6.493534 
H 	 -0.164035 	 -1.615114 	 7.132068 
H 	 -0.648232 	 -2.758210 	 6.282602 
H 	 -5.403137 	 5.244984 	 6.444591 
H 	 -6.506309 	 6.257680 	 6.350020 
H 	 -6.589033 	 -1.016356 	 -1.966561 
H 	 -5.636497 	 -2.174667 	 -2.336548 
H 	 -2.012323 	 -6.427220 	 -4.350467 
H 	 -1.600862 	 -4.893347 	 -4.245059 
H 	 -3.616748 	 -0.912635 	 -6.424955 
H 	 -2.980971 	 0.440525 	 -6.408496 
H 	 5.902454 	 1.864892 	 1.762525 
H 	 7.406311 	 1.521532 	 2.322152 
H 	 -3.215374 	 6.884090 	 1.486647 
H 	 -4.669410 	 6.781261 	 1.956999 
H 	 2.510161 	 -4.664103 	 3.895784 
H 	 2.158399 	 -4.053437 	 5.297649 
H 	 -2.822212 	 -6.898865 	 5.149941 
H 	 -4.074907 	 -6.692388 	 6.070652 
H 	 -2.759892 	 -4.453701 	 4.979547 
H 	 -4.166025 	 -4.687261 	 4.313589 
H 	 3.696746 	 5.743237 	 -6.924714 
H 	 2.579294 	 6.611047 	 7.339997 
H 	 3.604215 	 -6.838984 	 -3.033622 
H 	 4.217647 	 -6.356853 	 -1.742425 
H 	 -6.752707 	 1.307221 	 6.963716 
H 	 -7.280453 	 0.606322 	 -6.562889 
H 	 -0.435805 	 -4.746542 	 6.822490 
H 	 -0.350170 	 -5.350125 	 5.371369 
H 	 -2.126659 	 4.315573 	 -4.146314 
H 	 -0.715861 	 3.614896 	 -4.168896 
H 	 6.888560 	 5.477413 	 0.215317 
H 	 5.944795 	 6.048459 	 1.280108 
H 	 -3.681083 	 4.517703 	 5.065760 
H 	 -3.976799 	 3.753950 	 6.380143 
H 	 -2.622523 	 -2.983994 	 1.883097 
H 	 -2.645428 	 -2.595510 	 3.387698 
H 	 -6.373695 	 7.414439 	 3.248006 
H 	 -4.990958 	 -7.091920 	 3.871259 
H 	 6.569031 	 5.042272 	 -7.010903 
H 	 5.616494 	 3.777885 	 -7.233078 
H 	 1.929312 	 -0.112803 	 4.224624 
H 	 1.676355 	 -1.616519 	 4.168509 
H 	 4.587582 	 3.551086 	 -3.779442 
H 	 4.854423 	 3.933820 	 -5.380218 
H 	 5.039303 	 0.608162 	 -5.403426 
H 	 5.326148 	 -0.780993 	 -4.882714 
H 	 6.215865 	 4.351933 	 -2.373044 
H 	 5.169734 	 3.570439 	 -1.460508 
H 	 0.952342 	 -5.418027 	 -5.988704 
H 	 -0.361927 	 -6.346208 	 -5.807369 
H 	 3.393867 	 1.637856 	 -6.736400 
H 	 4.595750 	 1.517966 	 7.226475 
H 	 4.032741 	 -6.270235 	 3.677539 
H 	 4.783824 	 -5.985628 	 5.129495 
H 	 -2.708157 	 -5.009501 	 0.962878 
H 	 -3.968096 	 -4.023308 	 0.954827 
H 	 -6.968686 	 2.245905 	 -4.429870 
H 	 -7.222342 	 2.712005 	 -5.819580 
H 	 4.815621 	 -5.598662 	 7.335954 
H 	 5.281704 	 -4.282785 	 6.559707 
H 	 2.068211 	 -0.408361 	 6.854035 
H 	 1.266138 	 0.208402 	 -6.807280 
H 	 5.072287 	 1.225061 	 5.036354 
H 	 4.040130 	 1.966079 	 4.158371 
H 	 1.700763 	 4.717284 	 -7.026059 
H 	 1.252057 	 3.353384 	 -6.531743 
H 	 -3.409941 	 3.309972 	 0.184593 
H 	 -2.593282 	 4.561375 	 -0.232799 
H 	 -1.504842 	 1.786040 	 2.953164 
H 	 -1.022117 	 2.013439 	 4.399753 
H 	 -2.028103 	 -6.214961 	 3.083932 
H 	 -1.146107 	 -6.353674 	 1.710290 
H 	 -2.458247 	 -1.363712 	 6.035593 
H 	 -2.821030 	 -1.155083 	 4.550567 
H 	 -0.850807 	 7.095124 	 5.409856 
H 	 -0.675073 	 7.314208 	 3.914701 
H 	 -3.536371 	 2.796530 	 -6.566301 
H 	 -2.358433 	 2.710509 	 -5.633674 
H 	 1.717584 	 7.100404 	 -5.029607 
H 	 -2.328092 	 6.266808 	 -1.996503 
H 	 -5.452030 	 -1.273449 	 4.712328 
H 	 -6.034463 	 -2.697903 	 4.910078 
H 	 5.348200 	 -1.262587 	 6.484080 
H 	 4.190363 	 -1.181634 	 5.525751 
H 	 3.514099 	 5.651886 	 2.536087 
H 	 2.998987 	 5.690502 	 1.137405 
H 	 -0.480004 	 -2.599057 	 -3.602068 
H 	 -0.616277 	 -2.432496 	 -5.192344 
H 	 -1.490523 	 6.871930 	 -0.868230 
O 	 -7.074192 	 -2.781705 	 -5.025092 
O 	 4.741129 	 -6.477525 	 -0.218245 
O 	 -5.330913 	 -3.618277 	 1.704369 
O 	 5.826780 	 -2.753161 	 -6.998810 
O 	 -6.160960 	 -4.502255 	 4.811072 
O 	 6.795611 	 -5.155341 	 2.802185 
O 	 -3.769385 	 -6.860971 	 -6.613786 
O 	 -6.089829 	 3.470036 	 2.749980 
O 	 -3.893122 	 -5.475327 	 -1.882772 
O 	 -4.854764 	 1.059918 	 3.703144 
O 	 3.376981 	 -2.050851 	 -5.620724 
O 	 -3.435825 	 4.248938 	 3.417987 
O 	 2.199442 	 1.474947 	 3.490235 
O 	 6.871201 	 4.018718 	 4.863189 
O 	 -0.092742 	 -2.563129 	 -1.480993 
O 	 6.753265 	 -2.456763 	 2.977303 
O 	 2.715834 	 -5.531110 	 2.164475 
O 	 -5.560767 	 6.581039 	 -1.109995 
O 	 -2.730208 	 5.685835 	 -3.762907 
O 	 0.623779 	 4.840819 	 -2.547474 
O 	 -2.258123 	 -0.668253 	 -3.380037 
O 	 1.719195 	 2.138243 	 -2.498775 
O 	 7.148920 	 -5.756454 	 -5.346780 
O 	 -5.413338 	 -1.614895 	 -6.989080 
O 	 1.701558 	 -6.937996 	 6.334883 
O 	 0.636775 	 -2.005537 	 2.379303 
O 	 -2.062954 	 0.578504 	 1.726223 
O 	 0.529472 	 -0.424813 	 -4.215557 
O 	 -7.085349 	 0.972451 	 -0.522432 
O 	 6.835460 	 6.242591 	 -2.836898 
O 	 3.844142 	 -3.140575 	 1.305344 
O 	 7.247519 	 6.696441 	 4.024210 
O 	 5.846985 	 -3.990574 	 -2.880503 
O 	 -6.782657 	 3.920026 	 -0.045673 
O 	 -6.589727 	 -6.537520 	 6.907779 
O 	 4.268980 	 -5.988270 	 -5.794988 
O 	 -5.637809 	 -7.222029 	 -4.219153 
O 	 0.971131 	 -5.888520 	 -2.098954 
O 	 0.653289 	 5.973694 	 3.345623 
O 	 4.614372 	 3.150171 	 0.814192 
O 	 -0.331942 	 0.197439 	 -0.457595 
O 	 3.904774 	 5.366505 	 4.856772 
O 	 -4.784983 	 1.731535 	 6.370970 
O 	 6.360683 	 -2.857361 	 0.043547 
O 	 0.185572 	 3.755566 	 1.429428 
O 	 1.981637 	 -4.548794 	 -4.592574 
O 	 -5.328989 	 -0.858130 	 0.424112 
O 	 -4.253824 	 1.853060 	 0.713977 
O 	 -1.445915 	 6.980128 	 -5.509651 
O 	 -4.601881 	 4.358980 	 -5.685767 
O 	 -3.632738 	 -4.034335 	 -7.304819 
O 	 2.434865 	 1.205932 	 0.169357 
O 	 4.568194 	 6.441830 	 -4.183440 
O 	 1.954103 	 2.095169 	 -5.462232 
O 	 0.493764 	 -6.692155 	 0.539087 
O 	 4.363696 	 -0.997731 	 2.925372 
O 	 -6.511010 	 -5.141869 	 -1.773036 
O 	 2.731278 	 -1.052228 	 -2.710943 
O 	 2.678610 	 -3.411346 	 -1.345342 
O 	 1.579877 	 5.648923 	 -0.011242 
O 	 -0.763228 	 1.195618 	 5.984193 
O 	 1.754909 	 3.504358 	 5.099198 
O 	 5.857663 	 -0.622541 	 -1.758165 
O 	 -1.915218 	 1.832487 	 -2.032430 
O 	 -3.451847 	 -2.093598 	 -1.316481 
O 	 -1.081107 	 5.666605 	 6.451950 
O 	 -0.987575 	 -1.937308 	 6.705130 
O 	 -6.391758 	 5.289878 	 6.530326 
O 	 -6.277117 	 -1.559865 	 -2.738931 
O 	 -1.824181 	 -5.699480 	 -3.684353 
O 	 -2.815278 	 -0.475221 	 -6.113650 
O 	 6.589541 	 1.196760 	 1.837774 
O 	 -3.998377 	 6.258220 	 1.472948 
O 	 2.480630 	 -3.788311 	 4.378065 
O 	 -3.820319 	 -6.813172 	 5.137602 
O 	 -3.336226 	 -4.188459 	 4.243773 
O 	 2.798479 	 6.006510 	 -6.784490 
O 	 3.886195 	 -6.026646 	 -2.606105 
O 	 7.447205 	 1.342994 	 -7.224138 
O 	 -0.349673 	 -4.513400 	 5.873957 
O 	 -1.660506 	 3.423254 	 -4.339651 
O 	 6.392470 	 6.311390 	 0.439632 
O 	 -3.659268 	 4.591860 	 6.022650 
O 	 -2.594200 	 -2.161648 	 2.493129 
O 	 -5.483381 	 -7.100306 	 2.988483 
O 	 5.633192 	 4.741980 	 -7.044126 
O 	 2.213034 	 -0.938469 	 4.647701 
O 	 4.211398 	 3.724701 	 -4.663644 
O 	 5.604771 	 0.145319 	 -4.718919 
O 	 5.710155 	 3.518550 	 -2.255138 
O 	 0.094314 	 -5.705572 	 -6.423935 
O 	 4.352561 	 1.917581 	 -6.827183 
O 	 4.737526 	 -6.598338 	 4.270838 
O 	 -3.069858 	 -4.235051 	 0.420675 
O 	 -6.819414 	 3.014449 	 -4.983624 
O 	 5.221438 	 -5.260343 	 6.498856 
O 	 1.592719 	 -0.615861 	 -7.227600 
O 	 4.966808 	 2.020538 	 4.503995 
O 	 1.033929 	 3.997632 	 -7.239033 
O 	 -2.468773 	 3.690765 	 0.096183 
O 	 -1.271999 	 2.492772 	 3.579609 
O 	 -2.017253 	 -6.310549 	 2.120070 
O 	 -3.183959 	 -1.067231 	 5.428601 
O 	 -0.970256 	 -7.068554 	 4.707469 
O 	 -2.838151 	 2.210656 	 -6.339034 
O 	 1.017965 	 6.878704 	 -4.386099 
O 	 -6.305773 	 -1.757386 	 4.858957 
O 	 4.946340 	 -0.626799 	 5.849394 
O 	 3.812098 	 5.717540 	 1.633343 
O 	 -0.453007 	 -3.040632 	 -4.432602 
O 	 -1.776553 	 6.006797 	 -1.241036 
K 	 -6.907508 	 -6.161694 	 0.484334 
