333
conformation = 78
H 	 -7.134965 	 -3.795740 	 -4.953361 
H 	 -6.780588 	 -2.553518 	 -4.172926 
H 	 4.200279 	 -6.452374 	 0.744550 
H 	 5.195914 	 7.537872 	 -0.135400 
H 	 -5.645054 	 -3.709653 	 2.266455 
H 	 -5.519934 	 -2.626334 	 1.210044 
H 	 4.720180 	 -2.839781 	 -6.846097 
H 	 6.193889 	 -2.805220 	 -6.413038 
H 	 -6.331526 	 -5.187402 	 5.562979 
H 	 -6.964843 	 -4.652800 	 4.254032 
H 	 6.111955 	 -5.573815 	 3.371237 
H 	 6.510087 	 -4.181319 	 2.864198 
H 	 -2.993450 	 -7.259264 	 -6.303073 
H 	 -3.876766 	 -6.047606 	 -6.574260 
H 	 -6.752674 	 3.889033 	 3.299584 
H 	 -5.232627 	 3.730940 	 2.792743 
H 	 -3.287769 	 -5.776266 	 -2.654041 
H 	 -3.465180 	 -5.440806 	 -1.115486 
H 	 -5.574069 	 1.762278 	 3.286354 
H 	 -4.164926 	 1.070869 	 2.948595 
H 	 2.981247 	 -3.164709 	 -5.369363 
H 	 2.642512 	 -1.956424 	 -6.192579 
H 	 -2.703561 	 3.576080 	 3.227559 
H 	 -3.511825 	 4.884259 	 2.527539 
H 	 1.885566 	 1.499244 	 2.546875 
H 	 1.858856 	 2.169039 	 3.958277 
H 	 6.508767 	 3.280030 	 4.554404 
H 	 7.299294 	 4.280357 	 5.633417 
H 	 0.579000 	 -2.747054 	 -1.376673 
H 	 -0.274917 	 -1.532499 	 -1.487296 
H 	 5.852044 	 -2.008273 	 3.200408 
H 	 7.355851 	 -2.201889 	 3.672963 
H 	 3.199540 	 -4.897830 	 1.831367 
H 	 1.979171 	 -5.837335 	 1.646534 
H 	 -4.628882 	 6.883406 	 -0.796734 
H 	 -5.676705 	 5.743140 	 -0.763743 
H 	 -2.262291 	 6.132342 	 -4.352531 
H 	 -3.639560 	 5.517157 	 -4.053088 
H 	 -0.012355 	 5.206623 	 -2.162898 
H 	 1.143846 	 5.456096 	 -3.124396 
H 	 -2.707148 	 -0.760172 	 -4.211932 
H 	 -2.764525 	 0.014269 	 -2.833072 
H 	 1.444460 	 3.030894 	 -2.203261 
H 	 0.972351 	 1.679189 	 -2.783722 
H 	 -7.223342 	 -6.333388 	 -4.755859 
H 	 6.257737 	 -5.783328 	 -5.221856 
H 	 -5.848303 	 -1.187409 	 7.367784 
H 	 -6.066539 	 -2.130354 	 -6.265939 
H 	 1.053833 	 7.396984 	 5.809118 
H 	 1.452582 	 -6.643216 	 6.900413 
H 	 0.699273 	 -2.868559 	 2.960392 
H 	 -0.439571 	 -1.969292 	 2.509485 
H 	 -1.424645 	 0.158100 	 0.964302 
H 	 -2.267844 	 -0.360255 	 2.121899 
H 	 1.122988 	 -0.951661 	 -3.798513 
H 	 -0.387502 	 -0.508311 	 -3.616546 
H 	 6.946479 	 0.327089 	 -0.975072 
H 	 -7.462181 	 0.876301 	 0.336516 
H 	 -7.304452 	 6.218816 	 -3.668465 
H 	 7.191235 	 6.667704 	 -2.242856 
H 	 3.956465 	 -2.453004 	 1.752834 
H 	 4.870148 	 -3.112885 	 0.800359 
H 	 6.784422 	 5.837307 	 4.300787 
H 	 6.364739 	 7.349278 	 4.120120 
H 	 5.761382 	 -3.825046 	 -1.968566 
H 	 4.942259 	 -4.846505 	 -2.838205 
H 	 -7.160283 	 3.038425 	 -0.566744 
H 	 -6.551721 	 3.713382 	 0.766540 
H 	 -5.582848 	 -6.677743 	 7.355818 
H 	 -6.954817 	 -6.131607 	 -7.225222 
H 	 4.112487 	 -6.903086 	 -5.408882 
H 	 3.713438 	 -5.436211 	 -5.282384 
H 	 -5.112722 	 -7.122480 	 -3.387118 
H 	 -4.983194 	 7.415786 	 -4.969368 
H 	 0.157357 	 -5.407505 	 -2.521002 
H 	 0.999027 	 -6.526901 	 -2.939204 
H 	 1.045428 	 5.160204 	 3.720810 
H 	 0.224104 	 5.563517 	 2.486997 
H 	 4.030316 	 3.532809 	 1.384758 
H 	 3.880641 	 2.145368 	 0.666799 
H 	 -0.663239 	 0.537653 	 -0.952533 
H 	 0.692285 	 0.594315 	 -0.181943 
H 	 4.074540 	 6.090299 	 4.662669 
H 	 4.870244 	 4.842656 	 4.758569 
H 	 -4.883258 	 1.027081 	 5.476315 
H 	 -4.021314 	 1.108453 	 6.756136 
H 	 6.727877 	 -2.659455 	 1.110238 
H 	 6.667464 	 -1.979218 	 -0.319745 
H 	 -0.378074 	 3.300147 	 2.136052 
H 	 -0.882968 	 3.718047 	 0.769140 
H 	 2.122571 	 -5.115405 	 -3.963486 
H 	 1.230868 	 -3.925944 	 -4.477109 
H 	 -5.854354 	 -0.608318 	 -0.167468 
H 	 -4.420464 	 -1.244233 	 0.229559 
H 	 -3.755230 	 1.067226 	 0.991900 
H 	 -4.983787 	 1.548088 	 0.190989 
H 	 0.142369 	 6.882298 	 -4.913969 
H 	 -1.312045 	 6.189822 	 -6.061710 
H 	 -5.437673 	 4.352287 	 -5.205510 
H 	 -4.574880 	 4.920735 	 -6.421046 
H 	 -2.795700 	 -3.650994 	 -7.160570 
H 	 -4.273044 	 -3.176357 	 -7.179564 
H 	 3.059230 	 0.322532 	 0.276774 
H 	 2.266721 	 1.280645 	 -0.885106 
H 	 4.257673 	 5.435901 	 -4.346252 
H 	 5.298134 	 6.538657 	 -4.238002 
H 	 2.613591 	 2.495342 	 -4.723019 
H 	 1.730687 	 1.143966 	 -5.015296 
H 	 0.998567 	 7.201349 	 0.588071 
H 	 0.461534 	 -6.495364 	 -0.327156 
H 	 4.704165 	 -0.224242 	 2.528293 
H 	 3.815097 	 -0.888567 	 3.642397 
H 	 -7.233471 	 -4.875662 	 -2.497155 
H 	 -5.749258 	 -4.842898 	 -2.048237 
H 	 2.577797 	 -1.919560 	 -2.131218 
H 	 3.100977 	 -1.446430 	 -3.490791 
H 	 3.183761 	 -4.022310 	 -1.844159 
H 	 3.064502 	 -3.318262 	 -0.419710 
H 	 1.637827 	 5.397322 	 -0.909881 
H 	 1.158205 	 4.889680 	 0.466762 
H 	 -1.150160 	 1.895248 	 6.755039 
H 	 -1.326712 	 0.529958 	 5.921341 
H 	 2.613720 	 3.875552 	 5.123709 
H 	 1.428266 	 3.495454 	 6.010967 
H 	 5.789374 	 -0.405484 	 -2.615457 
H 	 4.755349 	 -0.762167 	 -1.457332 
H 	 -2.006742 	 2.606775 	 -1.271310 
H 	 -1.751291 	 2.467691 	 -2.779650 
H 	 -2.993581 	 -1.739228 	 -1.767528 
H 	 -2.924620 	 -3.133021 	 -1.133603 
H 	 -1.940304 	 5.087282 	 6.448156 
H 	 -0.499952 	 4.960302 	 7.095870 
H 	 -0.438607 	 -1.566696 	 7.327565 
H 	 -0.485291 	 -2.873261 	 6.366994 
H 	 -5.623618 	 5.195560 	 6.224692 
H 	 -6.676426 	 6.452010 	 6.388100 
H 	 -6.773248 	 -1.184403 	 -1.968541 
H 	 -5.344832 	 -1.820494 	 -2.162457 
H 	 -1.415745 	 -6.468173 	 -4.422757 
H 	 -1.459023 	 -4.848914 	 -4.172587 
H 	 -3.658243 	 -0.938946 	 -6.423891 
H 	 -2.758488 	 0.361884 	 -6.098666 
H 	 5.995422 	 1.979665 	 1.593116 
H 	 6.813061 	 1.423228 	 2.692132 
H 	 -3.051583 	 6.829910 	 1.591479 
H 	 -4.474558 	 6.714721 	 2.045543 
H 	 2.348897 	 -4.392447 	 3.630747 
H 	 1.650166 	 -4.191088 	 5.019204 
H 	 -2.988795 	 -6.958855 	 4.743951 
H 	 -3.570576 	 -6.937122 	 6.184542 
H 	 -3.019011 	 -3.747873 	 4.995522 
H 	 -4.276668 	 -4.430879 	 4.533550 
H 	 3.714493 	 5.660280 	 -6.999107 
H 	 2.680498 	 6.648507 	 7.268533 
H 	 4.217228 	 -6.876266 	 -2.952377 
H 	 3.925773 	 -6.086185 	 -1.685857 
H 	 -6.661439 	 1.215423 	 7.445001 
H 	 6.956493 	 0.453932 	 -6.809622 
H 	 -0.226480 	 -5.211702 	 6.550798 
H 	 -0.794656 	 -5.102015 	 5.132826 
H 	 -1.946907 	 4.229790 	 -4.128896 
H 	 -0.518448 	 3.667932 	 -4.163100 
H 	 7.072255 	 5.275240 	 0.067475 
H 	 5.694187 	 5.749171 	 0.669913 
H 	 -3.682481 	 4.621093 	 4.983695 
H 	 -3.772918 	 3.523889 	 6.014989 
H 	 -2.554980 	 -2.462004 	 1.514662 
H 	 -3.012073 	 -3.067673 	 2.870938 
H 	 -5.954290 	 7.161253 	 3.481742 
H 	 -4.976631 	 -6.589333 	 3.661765 
H 	 6.578445 	 4.888306 	 7.349389 
H 	 5.350215 	 3.928795 	 -7.358696 
H 	 2.138717 	 -0.000387 	 4.293480 
H 	 1.932846 	 -1.607521 	 4.428807 
H 	 4.875542 	 3.535074 	 -3.670186 
H 	 4.956096 	 3.431999 	 -5.139881 
H 	 5.169516 	 1.197322 	 -5.076262 
H 	 5.259080 	 -0.328351 	 -5.537279 
H 	 5.883444 	 4.348414 	 -2.213544 
H 	 5.276399 	 3.326494 	 -1.341660 
H 	 0.617951 	 -5.687539 	 -5.712514 
H 	 -0.557837 	 -6.542770 	 -6.342345 
H 	 3.407899 	 2.172239 	 -6.445184 
H 	 4.370152 	 1.237455 	 -7.333781 
H 	 3.972806 	 -6.521772 	 3.893998 
H 	 4.835663 	 -6.021187 	 5.111721 
H 	 -2.370475 	 -5.103630 	 0.888512 
H 	 -3.860579 	 -4.382744 	 0.674383 
H 	 -7.157931 	 2.489238 	 -4.070517 
H 	 -7.062483 	 2.254955 	 -5.620772 
H 	 4.759463 	 -5.756755 	 7.284934 
H 	 5.517702 	 -4.487478 	 6.959958 
H 	 1.417447 	 -0.814419 	 6.528906 
H 	 1.485283 	 0.337924 	 -7.349335 
H 	 5.172500 	 1.102984 	 4.924890 
H 	 4.188820 	 1.974913 	 4.115985 
H 	 1.752069 	 4.477675 	 -7.059470 
H 	 1.004601 	 3.123455 	 -6.574941 
H 	 -3.219267 	 3.100617 	 0.561192 
H 	 -2.747979 	 4.507076 	 -0.119179 
H 	 -1.380790 	 1.587228 	 3.176758 
H 	 -0.847884 	 2.263137 	 4.481690 
H 	 -2.033682 	 -5.768982 	 2.948932 
H 	 -1.091779 	 -6.434641 	 2.005991 
H 	 -2.384415 	 -1.549693 	 6.082166 
H 	 -2.993458 	 -1.176405 	 4.702129 
H 	 -1.016261 	 7.033742 	 5.616149 
H 	 -0.450850 	 7.136473 	 4.175708 
H 	 -3.437715 	 2.661110 	 -6.260785 
H 	 -1.989757 	 2.464337 	 -5.904668 
H 	 1.644902 	 6.355732 	 -5.203708 
H 	 -2.361588 	 5.855236 	 -1.964914 
H 	 -5.322790 	 -1.450975 	 4.790066 
H 	 -6.145689 	 -2.739646 	 5.136822 
H 	 5.397695 	 -1.568525 	 6.319160 
H 	 3.995638 	 -0.954118 	 5.849545 
H 	 3.172538 	 6.012052 	 2.355009 
H 	 3.258349 	 5.681071 	 0.848767 
H 	 -0.359384 	 -2.884400 	 -3.568198 
H 	 -0.163435 	 -2.222036 	 -4.779890 
H 	 -2.110551 	 6.970539 	 -0.933727 
O 	 -7.093518 	 -2.812369 	 -5.095446 
O 	 4.837823 	 -6.479905 	 -0.034603 
O 	 -5.279626 	 -3.595465 	 1.390486 
O 	 5.633357 	 -2.841849 	 -7.188255 
O 	 -6.226774 	 -4.493618 	 4.858725 
O 	 6.771185 	 -5.150143 	 2.796820 
O 	 -3.916934 	 -7.026441 	 -6.542461 
O 	 -6.121519 	 3.331337 	 2.773400 
O 	 -3.943465 	 -5.577625 	 -1.923289 
O 	 -4.900113 	 1.097105 	 3.595933 
O 	 3.322385 	 -2.274368 	 -5.583087 
O 	 -3.452615 	 4.203852 	 3.303185 
O 	 2.315374 	 1.490820 	 3.407909 
O 	 6.900138 	 4.170203 	 4.727839 
O 	 -0.260696 	 -2.485498 	 -1.760393 
O 	 6.708526 	 -2.371321 	 2.953651 
O 	 2.760539 	 -5.675624 	 2.239620 
O 	 -5.474801 	 6.595242 	 -1.201177 
O 	 -2.795668 	 5.644696 	 -3.620040 
O 	 0.815789 	 4.813893 	 -2.491950 
O 	 -2.385210 	 -0.821929 	 -3.246995 
O 	 1.703258 	 2.085374 	 -2.273789 
O 	 7.242379 	 -5.754672 	 -5.341960 
O 	 -5.388259 	 -1.762651 	 -6.877950 
O 	 1.838794 	 -7.040230 	 6.105958 
O 	 0.507188 	 -2.134194 	 2.343737 
O 	 -2.026082 	 0.528742 	 1.688387 
O 	 0.394300 	 -0.398661 	 -4.214460 
O 	 -7.200759 	 0.816511 	 -0.582760 
O 	 6.853193 	 6.244350 	 -3.063250 
O 	 3.936762 	 -3.237096 	 1.195222 
O 	 7.162145 	 6.706083 	 4.051318 
O 	 5.620335 	 -4.130530 	 -2.879567 
O 	 -6.915822 	 3.878773 	 -0.143098 
O 	 -6.394124 	 -6.479572 	 6.885192 
O 	 4.292484 	 -6.017414 	 -5.776394 
O 	 -5.635568 	 -7.284237 	 -4.244303 
O 	 1.031299 	 -5.790753 	 -2.307800 
O 	 0.555697 	 5.948441 	 3.369138 
O 	 4.507818 	 2.904726 	 0.779477 
O 	 -0.125813 	 0.057456 	 -0.316809 
O 	 3.985018 	 5.155814 	 4.851574 
O 	 -4.844640 	 1.442767 	 6.393645 
O 	 6.420970 	 -2.771727 	 0.183463 
O 	 -0.091513 	 3.805880 	 1.306578 
O 	 1.965000 	 -4.560227 	 -4.722251 
O 	 -5.320592 	 -0.923764 	 0.602503 
O 	 -4.252909 	 1.908617 	 0.749864 
O 	 -1.516673 	 6.955047 	 -5.505515 
O 	 -4.522204 	 4.355390 	 -5.646316 
O 	 -3.686035 	 -3.955973 	 7.466514 
O 	 2.482223 	 1.138736 	 0.077213 
O 	 4.294270 	 6.424812 	 -4.230594 
O 	 2.011916 	 2.038014 	 -5.420785 
O 	 0.577774 	 -6.796501 	 0.662170 
O 	 4.434673 	 -1.086791 	 2.835606 
O 	 -6.670236 	 -5.011223 	 -1.768508 
O 	 2.642591 	 -1.073332 	 -2.688303 
O 	 2.602448 	 -3.457241 	 -1.325199 
O 	 1.682606 	 5.653995 	 0.027200 
O 	 -0.736946 	 1.266345 	 6.154194 
O 	 1.709060 	 3.567722 	 5.031719 
O 	 5.692568 	 -0.749119 	 -1.713080 
O 	 -1.930883 	 1.910432 	 -1.992101 
O 	 -3.448914 	 -2.263679 	 -1.088465 
O 	 -1.050811 	 5.542465 	 6.516983 
O 	 -0.955151 	 -2.086621 	 6.679203 
O 	 -6.444136 	 5.524630 	 6.679053 
O 	 -6.198422 	 -1.635118 	 -2.627099 
O 	 -1.605073 	 -5.735056 	 -3.765783 
O 	 -2.766399 	 -0.606462 	 -6.145163 
O 	 6.455274 	 1.144058 	 1.806575 
O 	 -3.780577 	 6.170399 	 1.512057 
O 	 2.270985 	 -3.734570 	 4.411820 
O 	 -3.843211 	 -6.837690 	 5.224455 
O 	 -3.346681 	 -4.276709 	 4.246121 
O 	 2.796092 	 5.910314 	 -6.962089 
O 	 3.794744 	 -6.038818 	 -2.641511 
O 	 7.291241 	 1.327382 	 -7.182299 
O 	 -0.457583 	 -4.508394 	 5.862707 
O 	 -1.447448 	 3.387278 	 -4.297338 
O 	 6.457283 	 6.063456 	 0.180767 
O 	 -3.845363 	 4.502459 	 5.951195 
O 	 -2.538398 	 -2.270489 	 2.498538 
O 	 -5.429411 	 -7.082344 	 2.944076 
O 	 5.725163 	 4.761590 	 -6.990413 
O 	 2.283785 	 -0.803556 	 4.837274 
O 	 4.283095 	 3.676930 	 -4.463772 
O 	 5.447371 	 0.287328 	 -4.785823 
O 	 5.572700 	 3.414907 	 -2.241913 
O 	 0.132132 	 -5.858981 	 -6.558612 
O 	 4.310328 	 2.089668 	 -6.831883 
O 	 4.827297 	 -6.642130 	 4.343387 
O 	 -2.844658 	 -4.394768 	 0.371284 
O 	 -6.886596 	 2.923323 	 -4.917436 
O 	 5.103594 	 -5.226810 	 6.494155 
O 	 1.412398 	 -0.659650 	 -7.387371 
O 	 5.028386 	 2.006973 	 4.612889 
O 	 1.040879 	 3.805597 	 -7.259033 
O 	 -2.501974 	 3.612651 	 0.058165 
O 	 -1.139829 	 2.442204 	 3.567159 
O 	 -2.067533 	 -6.326358 	 2.161014 
O 	 -3.215441 	 -1.108108 	 5.641239 
O 	 -1.026947 	 -7.267861 	 4.814553 
O 	 -2.690322 	 2.066655 	 -6.470400 
O 	 1.110900 	 6.891745 	 -4.593602 
O 	 -6.225514 	 -1.794744 	 4.863002 
O 	 4.921205 	 -0.776758 	 6.024015 
O 	 3.783676 	 5.682921 	 1.643535 
O 	 -0.396752 	 -3.135241 	 -4.494515 
O 	 -1.924565 	 6.059427 	 -1.101137 
K 	 -6.959976 	 -6.241421 	 0.526167 
