333
conformation = 5
H 	 223.499363 	 -5.051900 	 146.314166 
H 	 224.226957 	 -3.701763 	 146.978258 
H 	 -264.921510 	 -7.643183 	 -348.332196 
H 	 -264.057010 	 -8.805959 	 -348.831760 
H 	 225.933250 	 -4.830509 	 139.033935 
H 	 225.631651 	 -4.140010 	 -347.378475 
H 	 -263.948193 	 -4.039404 	 144.754378 
H 	 222.674300 	 -3.933484 	 144.979330 
H 	 224.713482 	 -6.519505 	 141.832273 
H 	 224.251126 	 -6.111851 	 140.372838 
H 	 222.239869 	 -6.864689 	 139.742334 
H 	 222.739136 	 -5.566511 	 139.128680 
H 	 228.166927 	 -8.601241 	 144.683598 
H 	 227.535604 	 -7.148626 	 144.415265 
H 	 224.259875 	 -12.509277 	 139.735958 
H 	 225.773936 	 -12.427379 	 139.263620 
H 	 227.938027 	 -6.816508 	 148.640467 
H 	 227.499700 	 -6.178681 	 -350.101352 
H 	 225.795518 	 -14.661226 	 139.407516 
H 	 227.075359 	 -15.541766 	 139.686511 
H 	 -265.948911 	 -4.057252 	 145.989613 
H 	 -266.271388 	 -2.911921 	 145.046000 
H 	 228.247451 	 -12.754539 	 139.696229 
H 	 227.717980 	 -11.382774 	 138.977273 
H 	 -266.972998 	 -14.612954 	 138.891793 
H 	 -267.216063 	 -14.007494 	 140.400542 
H 	 222.405748 	 -13.137264 	 141.146167 
H 	 223.420423 	 -12.186195 	 142.070809 
H 	 -268.072508 	 -4.089847 	 -349.922661 
H 	 -269.326241 	 -3.122394 	 -349.834357 
H 	 -263.088755 	 -3.546974 	 139.323994 
H 	 223.359603 	 -3.517623 	 140.051786 
H 	 -265.945198 	 -6.011402 	 -347.091462 
H 	 -266.978987 	 -7.279850 	 -347.128416 
H 	 226.142671 	 -9.849741 	 -349.178468 
H 	 224.818692 	 -10.487429 	 -349.765328 
H 	 228.826571 	 -9.969212 	 146.683654 
H 	 227.441367 	 -10.650299 	 146.819448 
H 	 -269.308197 	 -11.075898 	 -350.994206 
H 	 -268.226859 	 -10.635356 	 147.941605 
H 	 228.380832 	 -1.827655 	 146.835616 
H 	 228.704346 	 -16.082574 	 148.267849 
H 	 -267.928550 	 -13.376525 	 148.612416 
H 	 -267.773313 	 -14.917528 	 148.367420 
H 	 223.708210 	 -7.472617 	 146.510551 
H 	 222.228038 	 -7.080753 	 145.904676 
H 	 225.180023 	 -3.097136 	 143.237726 
H 	 224.989969 	 -3.417987 	 144.734821 
H 	 -267.521554 	 -7.972669 	 141.860163 
H 	 -268.040323 	 -7.890804 	 143.333613 
H 	 -268.054211 	 -4.291029 	 138.786952 
H 	 -269.231122 	 -3.408320 	 138.542937 
H 	 229.553589 	 -15.917445 	 -347.818966 
H 	 228.703069 	 483.341987 	 138.293187 
H 	 -267.918116 	 -2.229900 	 147.611955 
H 	 -269.328197 	 -1.841262 	 147.194658 
H 	 223.390214 	 -15.473688 	 -350.055273 
H 	 223.311110 	 -15.074356 	 -348.546557 
H 	 223.563532 	 -9.860666 	 147.727361 
H 	 223.284516 	 -9.384099 	 -350.828211 
H 	 -265.184306 	 -3.633431 	 -347.075941 
H 	 -264.326553 	 -4.770880 	 -347.815206 
H 	 223.198874 	 -10.527116 	 140.162768 
H 	 222.456803 	 -9.093648 	 140.168704 
H 	 -263.316234 	 -5.046982 	 -350.791820 
H 	 -263.614730 	 -5.983202 	 148.106586 
H 	 224.350192 	 -13.178409 	 -349.138608 
H 	 224.644771 	 -12.375445 	 -347.923390 
H 	 225.037426 	 -7.982388 	 143.930404 
H 	 223.553246 	 -7.609937 	 143.760202 
H 	 -264.865502 	 -8.255646 	 145.595971 
H 	 -265.470407 	 -6.944620 	 145.790797 
H 	 225.774079 	 -8.437928 	 147.921158 
H 	 226.146257 	 -8.393653 	 146.401266 
H 	 -268.921649 	 -7.330378 	 148.631783 
H 	 -267.427888 	 -7.821442 	 -351.251460 
H 	 -268.694156 	 -10.640752 	 140.451905 
H 	 -268.589349 	 -11.004340 	 138.949268 
H 	 -264.487647 	 -12.000058 	 -347.850043 
H 	 -265.203532 	 -13.324885 	 -347.964960 
H 	 230.115869 	 -15.508253 	 -350.068437 
H 	 -268.610427 	 -15.535044 	 -349.002053 
H 	 -264.990462 	 -9.808619 	 141.219129 
H 	 -264.287712 	 -11.159775 	 141.421733 
H 	 226.037019 	 -14.306682 	 141.719462 
H 	 226.678343 	 -15.222172 	 142.755615 
H 	 222.893781 	 -3.900930 	 -348.047335 
H 	 222.376262 	 -3.505984 	 -349.429155 
H 	 -268.756105 	 -13.174273 	 138.598612 
H 	 -269.618821 	 -12.667771 	 -347.652020 
H 	 -266.763578 	 -6.083428 	 147.540295 
H 	 -267.851517 	 -5.315635 	 146.868204 
H 	 224.865162 	 483.297359 	 -348.548751 
H 	 226.200970 	 -2.450620 	 -349.282060 
H 	 227.375061 	 -14.920548 	 -347.607827 
H 	 226.163327 	 -15.016951 	 -348.640179 
H 	 -268.905680 	 -9.340734 	 146.425996 
H 	 229.810310 	 -9.847181 	 144.908453 
H 	 225.834243 	 -12.470862 	 146.034986 
H 	 225.669959 	 -11.391112 	 145.087168 
H 	 228.182393 	 -4.823282 	 143.812469 
H 	 226.724694 	 -4.929611 	 144.365011 
H 	 -266.026433 	 -15.732334 	 -349.131227 
H 	 -266.700743 	 -14.419139 	 -349.353080 
H 	 -264.782006 	 -10.584439 	 146.925245 
H 	 -263.500358 	 -9.815142 	 147.484791 
H 	 -266.420104 	 -13.689488 	 146.228682 
H 	 -267.469333 	 -14.695323 	 146.492335 
H 	 -268.244756 	 -8.925864 	 -348.296399 
H 	 -268.566539 	 -7.776409 	 -349.321190 
H 	 -264.098379 	 483.561061 	 139.376937 
H 	 -265.344147 	 -2.321201 	 139.948903 
H 	 224.031027 	 -6.067110 	 -351.252967 
H 	 225.513792 	 -6.449218 	 -350.943840 
H 	 -266.080001 	 -3.346466 	 148.684304 
H 	 -265.870686 	 -2.281980 	 147.536045 
H 	 -266.567119 	 -5.740810 	 -350.080118 
H 	 -265.970162 	 -4.580714 	 -349.235847 
H 	 -267.423419 	 -10.784794 	 -349.790631 
H 	 -267.936303 	 -11.463758 	 -348.485230 
H 	 229.526154 	 -14.757586 	 142.819173 
H 	 230.127807 	 -16.081169 	 142.331059 
H 	 -266.540056 	 -12.054722 	 141.248149 
H 	 -267.452559 	 -12.797904 	 142.338005 
H 	 222.336491 	 -2.281207 	 148.518357 
H 	 -264.061496 	 -1.841983 	 -350.941334 
H 	 228.937619 	 -13.914363 	 -350.135669 
H 	 229.351100 	 -13.914740 	 148.349998 
H 	 228.021381 	 -2.711931 	 -350.766014 
H 	 228.215046 	 -3.959792 	 -349.838338 
H 	 229.112430 	 -11.102396 	 142.486256 
H 	 -269.455601 	 -11.094519 	 143.229655 
H 	 -269.057851 	 -2.874770 	 143.251268 
H 	 230.297752 	 -3.718352 	 142.222695 
H 	 225.583237 	 -11.125869 	 142.409581 
H 	 224.406480 	 -10.182080 	 142.485145 
H 	 224.374016 	 -2.456010 	 -350.741551 
H 	 225.344295 	 -3.557021 	 -351.241286 
H 	 228.929122 	 -7.692513 	 146.820013 
H 	 229.481199 	 -6.194982 	 147.132727 
H 	 227.284452 	 -2.181772 	 144.768021 
H 	 227.975043 	 -15.749299 	 145.114184 
H 	 -263.103808 	 -14.424648 	 -347.044503 
H 	 223.398210 	 -14.622334 	 138.831850 
H 	 227.632713 	 -9.234076 	 -347.447347 
H 	 226.308994 	 -9.598765 	 138.423007 
H 	 -266.510591 	 -5.959794 	 140.057989 
H 	 -266.745640 	 -5.589134 	 141.525431 
H 	 228.111234 	 -8.527945 	 141.285238 
H 	 227.099836 	 -8.285999 	 142.436939 
H 	 228.299722 	 -5.837678 	 141.239177 
H 	 227.008524 	 -6.192449 	 140.601027 
H 	 -265.315453 	 -10.567914 	 144.379290 
H 	 -266.243220 	 -9.480870 	 143.770779 
H 	 -264.637585 	 -8.241236 	 148.133683 
H 	 -264.902124 	 -7.495173 	 -350.494817 
H 	 224.409162 	 -14.577457 	 143.415066 
H 	 223.823989 	 -15.802546 	 144.368461 
H 	 -269.227321 	 -6.042492 	 143.200190 
H 	 -269.437937 	 -6.816315 	 141.778931 
H 	 228.988880 	 -11.989908 	 147.175269 
H 	 230.236312 	 -12.662806 	 146.541516 
H 	 222.974527 	 -10.703430 	 -348.468008 
H 	 -263.137158 	 -10.048505 	 -347.463298 
H 	 227.426893 	 -11.761764 	 141.393990 
H 	 227.397027 	 -12.588485 	 142.676709 
H 	 228.133501 	 -4.150535 	 -346.924867 
H 	 228.687522 	 -4.057913 	 139.513716 
H 	 224.648981 	 -8.962855 	 139.544973 
H 	 225.969359 	 -8.534092 	 140.090461 
H 	 222.569184 	 -11.366125 	 144.590170 
H 	 -263.378091 	 -12.524482 	 143.872764 
H 	 -267.099707 	 483.585186 	 140.433086 
H 	 -267.239400 	 -3.134581 	 140.491369 
H 	 -264.174988 	 -12.656938 	 147.142469 
H 	 -264.366555 	 -12.478527 	 145.646540 
H 	 -263.702569 	 -15.658453 	 145.800890 
H 	 -263.758546 	 -2.222111 	 146.395205 
H 	 222.587110 	 -12.016512 	 -351.071528 
H 	 -263.360133 	 -12.763072 	 -350.106180 
H 	 -268.242966 	 -7.051920 	 145.506339 
H 	 -269.568906 	 -7.682886 	 145.001907 
H 	 -265.469255 	 -14.713576 	 144.390559 
H 	 -264.348945 	 -14.871638 	 143.375876 
H 	 -265.050965 	 -7.724263 	 139.921571 
H 	 -264.306543 	 -7.453823 	 141.306803 
H 	 228.339010 	 -6.344392 	 -348.092680 
H 	 226.960553 	 -5.592822 	 -347.890361 
H 	 224.275133 	 -13.906940 	 146.860131 
H 	 223.914982 	 -13.874809 	 145.365848 
H 	 -264.069154 	 -6.709681 	 143.742338 
H 	 -263.348843 	 -5.772827 	 142.872879 
H 	 -266.886679 	 483.396275 	 143.172170 
H 	 -267.660265 	 -16.143966 	 144.611422 
H 	 -263.845110 	 -15.198260 	 141.065772 
H 	 -264.958689 	 -14.290052 	 140.425371 
H 	 -267.292077 	 -11.522364 	 144.271337 
H 	 -267.908615 	 -12.909187 	 144.577257 
H 	 227.775789 	 -12.846470 	 -348.289476 
H 	 228.532825 	 -11.622182 	 -349.005789 
H 	 229.450985 	 -14.545525 	 139.257850 
H 	 229.921875 	 -14.108976 	 140.690139 
H 	 228.947670 	 -7.484481 	 139.243690 
H 	 230.023843 	 -7.800428 	 -347.004076 
H 	 228.450920 	 -2.598201 	 142.213703 
H 	 228.241405 	 -2.487522 	 140.763995 
H 	 230.093802 	 -9.110900 	 141.637355 
H 	 -269.356762 	 -8.773792 	 140.276127 
H 	 227.455173 	 -13.395098 	 144.525883 
H 	 228.570317 	 -13.445881 	 145.591171 
H 	 -267.447282 	 -9.875704 	 146.319345 
H 	 228.790774 	 -10.071496 	 -350.967867 
H 	 225.589434 	 -2.777449 	 140.902570 
H 	 224.829060 	 -4.071257 	 141.240795 
H 	 -263.423661 	 -2.175042 	 142.775252 
H 	 -264.490329 	 -2.736349 	 141.909521 
H 	 -265.205529 	 -10.778396 	 138.932608 
H 	 -266.053178 	 -10.455023 	 -347.422884 
H 	 -269.495367 	 -4.014151 	 147.647760 
H 	 230.339998 	 -3.769302 	 146.145109 
H 	 229.702983 	 -9.432702 	 -349.803205 
O 	 223.966236 	 -4.191812 	 146.151618 
O 	 -264.249610 	 -7.898821 	 -349.040727 
O 	 225.593509 	 -5.010437 	 -346.929608 
O 	 -263.078213 	 -4.047760 	 144.263498 
O 	 224.929105 	 -5.939505 	 141.076312 
O 	 222.933498 	 -6.540144 	 139.107136 
O 	 227.292371 	 -8.091858 	 144.555367 
O 	 224.895086 	 -12.741548 	 139.036147 
O 	 227.152312 	 -6.827047 	 -350.710437 
O 	 226.229328 	 -15.272733 	 140.050743 
O 	 -265.530361 	 -3.276411 	 145.590609 
O 	 227.590081 	 -11.975422 	 139.735083 
O 	 -266.834856 	 -14.773376 	 139.816739 
O 	 222.993210 	 -12.368527 	 141.216947 
O 	 -268.995941 	 -4.000624 	 -350.175184 
O 	 222.922430 	 -3.860316 	 139.227500 
O 	 -266.261824 	 -6.872413 	 138.418058 
O 	 225.436905 	 -9.741563 	 -349.869012 
O 	 228.265570 	 -10.534957 	 147.318067 
O 	 -268.495293 	 -11.435697 	 148.592646 
O 	 228.884584 	 -1.940364 	 147.674789 
O 	 -267.243074 	 -14.131109 	 148.598725 
O 	 223.223856 	 -7.096466 	 145.798521 
O 	 225.584535 	 -2.936819 	 144.132459 
O 	 -267.329352 	 -8.283036 	 142.755060 
O 	 -268.276164 	 -3.334652 	 138.667138 
O 	 228.965338 	 -15.734180 	 -347.061963 
O 	 -268.404014 	 483.456660 	 146.979067 
O 	 223.960407 	 -15.161478 	 -349.337204 
O 	 223.043292 	 -10.053323 	 148.515587 
O 	 -265.223350 	 -4.522925 	 -347.540317 
O 	 223.340167 	 -9.568958 	 140.290754 
O 	 -262.969424 	 -5.262152 	 148.323637 
O 	 224.272085 	 -12.271655 	 -348.793538 
O 	 224.356341 	 -7.972296 	 143.255103 
O 	 -264.713428 	 -7.376845 	 145.365392 
O 	 225.377934 	 -8.626987 	 147.003324 
O 	 -268.123011 	 -7.317745 	 -350.807603 
O 	 -268.277697 	 -10.317931 	 139.631699 
O 	 -264.270134 	 -12.979184 	 -348.000865 
O 	 -269.420761 	 -15.992279 	 -349.308913 
O 	 -265.107898 	 -10.766318 	 141.128145 
O 	 226.238136 	 -14.392261 	 142.633706 
O 	 222.448215 	 -4.292396 	 -348.829259 
O 	 -268.705166 	 -12.544142 	 -347.286857 
O 	 -267.015884 	 -5.841464 	 146.660628 
O 	 225.701679 	 -2.271538 	 -348.459856 
O 	 226.700318 	 -14.420712 	 -348.118394 
O 	 229.629446 	 -9.259151 	 145.660988 
O 	 226.397379 	 -11.900118 	 145.451683 
O 	 227.444481 	 -5.449513 	 143.934875 
O 	 -266.603388 	 -15.074964 	 -348.607043 
O 	 -264.399076 	 -9.731444 	 147.010466 
O 	 -267.098342 	 -14.169360 	 145.728553 
O 	 -268.540573 	 -7.981378 	 -348.310311 
O 	 -264.683275 	 -2.257538 	 139.237595 
O 	 224.553078 	 -6.578629 	 -350.666418 
O 	 -266.111301 	 -2.383977 	 148.487525 
O 	 -266.316613 	 -4.815149 	 -350.111357 
O 	 -267.478760 	 -10.647941 	 -348.832058 
O 	 230.235513 	 -15.121297 	 142.252571 
O 	 -267.215788 	 -12.745928 	 141.402604 
O 	 -263.115949 	 -1.953355 	 -350.641777 
O 	 229.120767 	 -14.485929 	 -350.876508 
O 	 227.529306 	 -3.371889 	 -350.272050 
O 	 229.905385 	 -10.533574 	 142.724202 
O 	 230.069294 	 -3.276614 	 143.040201 
O 	 224.691427 	 -11.081245 	 142.807474 
O 	 224.717083 	 -2.883918 	 148.416353 
O 	 229.118743 	 -7.023864 	 147.525280 
O 	 228.160693 	 -1.827833 	 145.114142 
O 	 222.763310 	 -15.061176 	 -346.932900 
O 	 226.967090 	 -9.959765 	 -347.391267 
O 	 -266.416575 	 -5.187711 	 140.673065 
O 	 227.206783 	 -8.211315 	 141.440303 
O 	 227.719290 	 -5.507173 	 140.525229 
O 	 -266.177710 	 -10.174451 	 144.486753 
O 	 -265.126767 	 -7.440790 	 148.502503 
O 	 223.668637 	 -14.909934 	 143.915564 
O 	 -269.279275 	 -5.907826 	 142.196544 
O 	 229.347130 	 -12.875530 	 146.907808 
O 	 222.519896 	 -9.858504 	 -348.224456 
O 	 227.418266 	 -11.634949 	 142.417221 
O 	 228.465536 	 -3.457676 	 138.772534 
O 	 225.483237 	 -8.472929 	 139.282096 
O 	 -263.404821 	 -11.565423 	 144.102411 
O 	 -266.825176 	 -2.359867 	 140.868949 
O 	 -264.885057 	 -12.541683 	 146.476325 
O 	 -263.290688 	 -16.253085 	 146.490716 
O 	 -263.205751 	 -12.699759 	 -351.041829 
O 	 -268.891261 	 -7.003197 	 144.767016 
O 	 -264.515138 	 -14.521605 	 144.274843 
O 	 -264.313735 	 -7.992054 	 140.507547 
O 	 227.819693 	 -5.502940 	 -348.241564 
O 	 224.152041 	 -13.231223 	 146.157886 
O 	 -263.709113 	 -6.664734 	 142.801690 
O 	 -267.296363 	 -1.988775 	 144.035287 
O 	 -264.045757 	 -14.297475 	 140.782196 
O 	 -267.979635 	 -12.171541 	 143.951038 
O 	 228.620774 	 -12.534310 	 -348.709667 
O 	 229.678394 	 -13.742380 	 139.826570 
O 	 229.033496 	 -7.689151 	 138.294507 
O 	 227.801505 	 -2.350513 	 141.584918 
O 	 230.098801 	 -8.365132 	 140.975697 
O 	 228.133408 	 -14.001647 	 144.852334 
O 	 -268.008214 	 -9.397507 	 146.967712 
O 	 224.698441 	 -3.082245 	 141.188807 
O 	 -264.050169 	 -1.898370 	 142.090591 
O 	 -265.128178 	 -10.528454 	 -347.136027 
O 	 -269.494054 	 -4.493612 	 146.796844 
O 	 229.347745 	 -10.262095 	 -350.141580 
K 	 224.143902 	 -7.480651 	 -348.301799 
