333
conformation = 12
H 	 -7.376699 	 -3.637000 	 -4.661821 
H 	 -6.938095 	 -2.355885 	 -4.065261 
H 	 4.068709 	 -6.335604 	 0.551612 
H 	 5.165923 	 7.514149 	 -0.033187 
H 	 -5.102060 	 -3.443448 	 2.846583 
H 	 -5.506541 	 -2.655193 	 1.590379 
H 	 5.110266 	 -2.674207 	 -6.280880 
H 	 6.640441 	 -2.528663 	 -6.263672 
H 	 -6.319009 	 -5.103898 	 5.639574 
H 	 -6.836164 	 -4.755992 	 4.269183 
H 	 6.161948 	 -5.528657 	 3.476665 
H 	 6.652686 	 -4.140090 	 3.003511 
H 	 -2.929527 	 -7.220255 	 -6.313833 
H 	 -3.409513 	 -5.810922 	 -6.604083 
H 	 -6.770643 	 3.627517 	 3.579983 
H 	 -5.275336 	 4.018498 	 3.087713 
H 	 -3.187871 	 -5.414961 	 -2.498348 
H 	 -3.674313 	 -4.683083 	 -1.188222 
H 	 -5.243257 	 1.680068 	 3.197822 
H 	 -3.952047 	 0.835522 	 3.468019 
H 	 2.966904 	 -2.675131 	 -5.082480 
H 	 2.667442 	 -1.461000 	 -5.997465 
H 	 -2.755514 	 3.610754 	 3.533208 
H 	 -3.379997 	 4.907342 	 2.724902 
H 	 1.927841 	 1.743946 	 2.674634 
H 	 1.800234 	 2.240948 	 4.180079 
H 	 6.257692 	 3.181696 	 5.060342 
H 	 7.292705 	 4.290821 	 5.839152 
H 	 0.911746 	 -2.698596 	 -1.122877 
H 	 -0.239072 	 -1.751216 	 -0.865083 
H 	 5.924427 	 -1.975450 	 3.077719 
H 	 7.227714 	 -2.097124 	 3.833161 
H 	 2.885263 	 -4.639461 	 1.770675 
H 	 1.958522 	 -5.883497 	 1.665511 
H 	 -4.881665 	 6.501142 	 -0.339374 
H 	 -6.094836 	 5.781967 	 -0.822764 
H 	 -2.231173 	 6.337563 	 -4.527394 
H 	 -3.582564 	 5.514238 	 -4.182892 
H 	 -0.363790 	 5.150596 	 -2.156641 
H 	 0.758249 	 5.569888 	 -3.130578 
H 	 -2.597083 	 -0.362112 	 -4.280312 
H 	 -2.259563 	 0.263673 	 -2.851957 
H 	 1.077120 	 2.882924 	 -2.434785 
H 	 1.258738 	 1.373947 	 -2.690155 
H 	 7.489332 	 -6.122564 	 -4.484989 
H 	 6.164833 	 -5.713584 	 -5.181479 
H 	 -5.830594 	 -1.823178 	 7.115852 
H 	 -5.941048 	 -1.987897 	 -6.229240 
H 	 1.389240 	 -6.625132 	 5.596384 
H 	 0.961445 	 -6.512194 	 7.031318 
H 	 0.866777 	 -2.893612 	 2.710929 
H 	 -0.269903 	 -1.889810 	 2.158228 
H 	 -1.429812 	 0.452401 	 1.021323 
H 	 -2.289233 	 -0.372547 	 2.030206 
H 	 0.965816 	 -0.845837 	 -3.406415 
H 	 -0.436919 	 -0.377435 	 -3.940362 
H 	 7.278044 	 0.809686 	 -1.210107 
H 	 7.215813 	 1.236043 	 0.313415 
H 	 7.473162 	 6.416603 	 -3.435522 
H 	 7.118103 	 6.941429 	 -2.006957 
H 	 3.899355 	 -2.287786 	 1.833568 
H 	 4.721228 	 -3.241709 	 1.057911 
H 	 7.051737 	 5.806689 	 3.917863 
H 	 6.325890 	 7.155712 	 4.068966 
H 	 5.648089 	 -3.693614 	 -1.871732 
H 	 5.342767 	 -4.638538 	 -2.998581 
H 	 -6.926262 	 3.105119 	 -0.320302 
H 	 -6.435012 	 3.890809 	 1.044932 
H 	 -5.895934 	 -6.640197 	 -7.207088 
H 	 -7.364999 	 -6.317497 	 -7.239366 
H 	 4.082571 	 -6.952398 	 -5.505753 
H 	 3.442919 	 -5.455611 	 -5.455727 
H 	 -5.289702 	 -7.204309 	 -3.225838 
H 	 -4.953340 	 -6.878809 	 -4.733530 
H 	 0.110468 	 -5.882300 	 -2.518158 
H 	 1.462521 	 -6.525503 	 -2.431812 
H 	 0.212394 	 5.668641 	 4.272998 
H 	 0.314969 	 5.359956 	 2.797213 
H 	 4.616327 	 4.259613 	 0.965802 
H 	 3.738317 	 3.022322 	 0.897062 
H 	 -0.785878 	 0.899446 	 -1.063938 
H 	 0.488146 	 0.621333 	 -0.115498 
H 	 4.036892 	 6.430690 	 5.068124 
H 	 4.722663 	 5.044916 	 5.282325 
H 	 -4.846921 	 1.917721 	 5.430269 
H 	 -4.381848 	 0.959543 	 6.525801 
H 	 6.757968 	 -2.435567 	 0.844099 
H 	 6.237865 	 -2.176032 	 -0.598841 
H 	 0.180310 	 3.232704 	 2.393536 
H 	 -0.678166 	 3.674905 	 1.263942 
H 	 2.275507 	 -4.645390 	 -3.515690 
H 	 1.126404 	 -3.960872 	 -4.492956 
H 	 -6.179511 	 -0.347145 	 0.343298 
H 	 -4.925333 	 -0.978456 	 -0.472939 
H 	 -3.616294 	 1.254634 	 1.145923 
H 	 -4.896724 	 1.250817 	 0.366098 
H 	 0.116987 	 6.939949 	 -4.692679 
H 	 -1.243329 	 6.523952 	 -6.249941 
H 	 -5.232343 	 3.670172 	 -5.234901 
H 	 -5.284025 	 4.952390 	 -6.130105 
H 	 -2.890130 	 -3.380251 	 -7.301798 
H 	 -4.368053 	 -3.486256 	 -6.894249 
H 	 2.843427 	 0.490059 	 -0.088366 
H 	 2.094960 	 1.854472 	 -0.428001 
H 	 4.090161 	 5.663023 	 -4.188528 
H 	 5.350838 	 6.286185 	 -3.577523 
H 	 2.646504 	 2.669513 	 -4.883694 
H 	 1.402069 	 1.598173 	 -4.724816 
H 	 0.658054 	 7.322036 	 0.501146 
H 	 0.550535 	 -6.217929 	 -0.340956 
H 	 4.913268 	 -0.122074 	 3.202835 
H 	 3.594074 	 -0.890413 	 3.775147 
H 	 -7.026640 	 -4.559690 	 -2.362357 
H 	 -5.527627 	 -5.212091 	 -1.965742 
H 	 2.783923 	 -1.985661 	 -2.540847 
H 	 3.146922 	 -0.848710 	 -3.536591 
H 	 2.273151 	 -4.309139 	 -1.265728 
H 	 2.978548 	 -3.206102 	 -0.284166 
H 	 1.537291 	 5.503092 	 -0.900289 
H 	 1.018445 	 4.873240 	 0.404411 
H 	 -1.332006 	 1.682905 	 6.738155 
H 	 -0.865544 	 0.215756 	 6.129124 
H 	 2.415482 	 4.243994 	 5.176948 
H 	 1.520166 	 3.539426 	 6.172636 
H 	 6.241004 	 -0.912554 	 -2.539188 
H 	 4.863903 	 -0.557015 	 -1.754799 
H 	 -2.141527 	 2.498370 	 -1.231211 
H 	 -1.645820 	 2.431665 	 -2.711043 
H 	 -2.948937 	 -1.425920 	 -1.930532 
H 	 -2.865096 	 -2.526447 	 -0.819920 
H 	 -1.873939 	 5.154146 	 6.280595 
H 	 -0.389618 	 5.127464 	 6.828639 
H 	 -0.128516 	 -1.465574 	 7.097324 
H 	 -0.758769 	 -2.439422 	 6.036212 
H 	 -5.414390 	 5.144671 	 6.302012 
H 	 -6.684901 	 6.134552 	 6.340002 
H 	 -6.617737 	 -1.028258 	 -1.896932 
H 	 -5.717553 	 -2.187264 	 -2.320030 
H 	 -2.147036 	 -6.305064 	 -4.259939 
H 	 -1.528668 	 -4.833148 	 -4.060643 
H 	 -3.624876 	 -0.879391 	 -6.331396 
H 	 -2.982566 	 0.548029 	 -6.048087 
H 	 5.951512 	 1.923587 	 1.914803 
H 	 7.234213 	 1.707180 	 2.535320 
H 	 -3.407480 	 7.087361 	 1.505664 
H 	 -4.672356 	 6.709703 	 2.157731 
H 	 2.512388 	 -4.569451 	 3.878381 
H 	 2.245277 	 -4.056033 	 5.375719 
H 	 -2.848723 	 -7.022866 	 5.173107 
H 	 -3.997202 	 -6.778696 	 6.174799 
H 	 -2.767365 	 -4.496760 	 5.032087 
H 	 -4.016569 	 -4.796182 	 4.380986 
H 	 3.674723 	 5.699337 	 -6.756232 
H 	 2.690965 	 6.792336 	 7.550704 
H 	 4.026029 	 -6.879458 	 -2.977151 
H 	 4.084464 	 -6.104838 	 -1.607734 
H 	 -6.610907 	 1.499534 	 7.096564 
H 	 -7.136160 	 0.579529 	 -6.700436 
H 	 -0.352352 	 -4.666283 	 6.921666 
H 	 -0.330013 	 -5.390228 	 5.623468 
H 	 -2.056344 	 4.388111 	 -3.928442 
H 	 -0.748053 	 3.625812 	 -4.398150 
H 	 6.888286 	 5.617173 	 0.338810 
H 	 5.894840 	 6.236519 	 1.470398 
H 	 -3.705453 	 4.523311 	 5.224298 
H 	 -3.754285 	 3.760890 	 6.510693 
H 	 -2.805265 	 -2.897089 	 1.985068 
H 	 -2.378392 	 -2.504683 	 3.442440 
H 	 -6.314999 	 7.253953 	 3.181348 
H 	 -5.001741 	 -7.225555 	 3.942171 
H 	 6.456912 	 4.940490 	 -6.660144 
H 	 5.646432 	 3.795244 	 -7.166451 
H 	 1.867978 	 -0.111086 	 4.266246 
H 	 1.685487 	 -1.702733 	 4.257969 
H 	 4.813376 	 3.724754 	 -3.902899 
H 	 4.751178 	 3.894963 	 -5.377063 
H 	 5.146736 	 0.623672 	 -5.283223 
H 	 5.291215 	 -0.788442 	 -4.644531 
H 	 6.381262 	 4.330659 	 -2.189911 
H 	 5.497092 	 3.641715 	 -1.195380 
H 	 0.856254 	 -5.553320 	 -5.700512 
H 	 -0.571207 	 -6.222489 	 -5.867618 
H 	 3.462260 	 1.571832 	 -6.640382 
H 	 4.680828 	 1.578258 	 7.220003 
H 	 3.933118 	 -6.306643 	 3.762171 
H 	 4.712789 	 -5.956499 	 5.162073 
H 	 -2.700014 	 -4.984199 	 0.818946 
H 	 -4.123055 	 -4.203967 	 0.993643 
H 	 -6.786716 	 2.345148 	 -4.309117 
H 	 -7.210350 	 2.628419 	 -5.708646 
H 	 4.907337 	 -5.350740 	 7.508531 
H 	 5.475011 	 -4.274794 	 6.607099 
H 	 2.084519 	 -0.225903 	 7.040376 
H 	 1.299508 	 0.187025 	 -6.653412 
H 	 5.116269 	 1.144230 	 4.949204 
H 	 4.008457 	 1.960667 	 4.243249 
H 	 1.692098 	 4.783537 	 -6.900845 
H 	 1.060019 	 3.347351 	 -6.514352 
H 	 -3.297631 	 3.402773 	 0.544128 
H 	 -2.496234 	 4.669583 	 -0.127279 
H 	 -1.549832 	 1.805283 	 3.056030 
H 	 -1.030239 	 2.139102 	 4.495034 
H 	 -1.995879 	 -6.184126 	 3.111501 
H 	 -1.075775 	 -6.344767 	 1.941334 
H 	 -2.508789 	 -1.267577 	 6.100829 
H 	 -2.779420 	 -1.135059 	 4.552831 
H 	 -0.873039 	 7.217629 	 5.511726 
H 	 -0.512917 	 7.504444 	 3.982331 
H 	 -3.508080 	 2.892393 	 -6.628248 
H 	 -2.361168 	 2.835662 	 -5.607613 
H 	 1.710432 	 6.696998 	 -4.826460 
H 	 -2.278935 	 6.250774 	 -1.977415 
H 	 -5.439522 	 -1.312068 	 4.734179 
H 	 -6.222779 	 -2.670307 	 5.009233 
H 	 5.538554 	 -0.851027 	 6.595163 
H 	 4.329907 	 -1.278483 	 5.602320 
H 	 3.794920 	 5.584842 	 2.666882 
H 	 2.934716 	 5.821331 	 1.359474 
H 	 -0.471426 	 -2.493594 	 -3.535933 
H 	 -0.645726 	 -2.349565 	 -4.990993 
H 	 -1.328487 	 6.863220 	 -0.812487 
O 	 -7.070183 	 -2.766487 	 -4.956479 
O 	 4.725049 	 -6.477510 	 -0.145154 
O 	 -5.394357 	 -3.605425 	 1.898075 
O 	 5.866880 	 -2.672635 	 -6.858323 
O 	 -6.114043 	 -4.508207 	 4.875834 
O 	 6.798715 	 -5.129751 	 2.893425 
O 	 -3.749690 	 -6.740303 	 -6.542796 
O 	 -6.111822 	 3.541307 	 2.828445 
O 	 -3.877898 	 -5.426651 	 -1.811679 
O 	 -4.818406 	 1.053942 	 3.826858 
O 	 3.416250 	 -1.919710 	 -5.533122 
O 	 -3.433230 	 4.309786 	 3.522534 
O 	 2.159851 	 1.523435 	 3.602887 
O 	 6.870066 	 3.980930 	 4.999370 
O 	 -0.050577 	 -2.573863 	 -1.322042 
O 	 6.787799 	 -2.449427 	 3.036651 
O 	 2.719309 	 -5.470583 	 2.238497 
O 	 -5.580220 	 6.587639 	 -0.996425 
O 	 -2.748406 	 5.749591 	 -3.742403 
O 	 0.529004 	 4.879057 	 -2.496566 
O 	 -2.190733 	 -0.579385 	 -3.380045 
O 	 1.720842 	 2.175823 	 -2.480887 
O 	 7.115592 	 -5.703926 	 -5.297158 
O 	 -5.436086 	 -1.547282 	 -6.952477 
O 	 1.661307 	 -6.887405 	 6.503845 
O 	 0.673229 	 -1.945527 	 2.465504 
O 	 -2.067008 	 0.595626 	 1.828445 
O 	 0.560672 	 -0.299572 	 -4.126429 
O 	 -7.076945 	 1.089434 	 -0.431581 
O 	 6.877243 	 6.259798 	 -2.642877 
O 	 3.774690 	 -3.116376 	 1.374985 
O 	 7.233791 	 6.743843 	 4.098311 
O 	 5.947882 	 -3.892341 	 -2.785118 
O 	 -6.762996 	 3.995046 	 0.077591 
O 	 -6.648329 	 -6.540249 	 7.022051 
O 	 4.261894 	 -5.964919 	 -5.726012 
O 	 -5.637522 	 -7.205406 	 -4.114499 
O 	 0.893571 	 -5.889637 	 -1.938461 
O 	 0.688184 	 5.990880 	 3.423392 
O 	 4.660093 	 3.277488 	 0.902470 
O 	 -0.410783 	 0.285708 	 -0.404460 
O 	 3.870203 	 5.489114 	 4.929025 
O 	 -4.790747 	 1.864386 	 6.448692 
O 	 6.333983 	 -2.861295 	 0.088163 
O 	 0.245356 	 3.776086 	 1.573128 
O 	 1.956094 	 -4.467907 	 -4.457731 
O 	 -5.322354 	 -0.845581 	 0.459582 
O 	 -4.300577 	 1.892236 	 0.781139 
O 	 -1.421623 	 7.028551 	 -5.431315 
O 	 -4.619020 	 4.397988 	 -5.630932 
O 	 -3.605341 	 -4.030598 	 -7.189797 
O 	 2.401566 	 1.227397 	 0.265875 
O 	 4.580887 	 6.544946 	 -4.095339 
O 	 1.902667 	 2.132232 	 -5.365326 
O 	 0.454157 	 -6.606270 	 0.590646 
O 	 4.309615 	 -0.893228 	 3.025071 
O 	 -6.481351 	 -5.149460 	 -1.739336 
O 	 2.808023 	 -0.994156 	 -2.618670 
O 	 2.665012 	 -3.394474 	 -1.235891 
O 	 1.523631 	 5.665794 	 0.069795 
O 	 -0.789616 	 1.192080 	 6.052667 
O 	 1.755306 	 3.545579 	 5.183130 
O 	 5.851641 	 -0.555701 	 -1.729228 
O 	 -1.916470 	 1.823741 	 -1.973945 
O 	 -3.477953 	 -2.005716 	 -1.318380 
O 	 -1.118228 	 5.746966 	 6.527184 
O 	 -0.973516 	 -1.882027 	 6.823284 
O 	 -6.352256 	 5.261257 	 6.598936 
O 	 -6.302493 	 -1.493885 	 -2.678097 
O 	 -1.885088 	 -5.637629 	 -3.584008 
O 	 -2.854065 	 -0.428490 	 -6.007688 
O 	 6.624717 	 1.231194 	 1.942753 
O 	 -4.046928 	 6.324154 	 1.527342 
O 	 2.526048 	 -3.778140 	 4.465982 
O 	 -3.822602 	 -6.792527 	 5.227458 
O 	 -3.326686 	 -4.113876 	 4.321858 
O 	 2.791025 	 6.097324 	 -6.651761 
O 	 3.865929 	 -6.022178 	 -2.561044 
O 	 -7.404406 	 1.391548 	 -7.162643 
O 	 -0.323111 	 -4.497566 	 5.979681 
O 	 -1.688866 	 3.435938 	 -4.225665 
O 	 6.382882 	 6.410990 	 0.618036 
O 	 -3.624910 	 4.655516 	 6.172029 
O 	 -2.583984 	 -2.080647 	 2.573681 
O 	 -5.530830 	 -7.055766 	 3.080592 
O 	 5.589701 	 4.758425 	 -6.985664 
O 	 2.169954 	 -0.937563 	 4.681569 
O 	 4.128152 	 3.758120 	 -4.618267 
O 	 5.650457 	 0.099902 	 -4.623458 
O 	 5.741496 	 3.583302 	 -2.161413 
O 	 0.085118 	 -5.622733 	 -6.341121 
O 	 4.411163 	 1.842849 	 -6.798748 
O 	 4.685754 	 -6.576725 	 4.316663 
O 	 -3.157790 	 -4.133934 	 0.599800 
O 	 -6.852051 	 3.065978 	 -4.932015 
O 	 5.245215 	 -5.252258 	 6.595089 
O 	 1.649186 	 -0.588280 	 -7.092348 
O 	 4.941419 	 2.033619 	 4.578283 
O 	 1.013260 	 4.099066 	 -7.151040 
O 	 -2.440528 	 3.758022 	 0.182540 
O 	 -1.325905 	 2.551010 	 3.638426 
O 	 -2.004665 	 -6.277292 	 2.134149 
O 	 -3.208439 	 -0.981669 	 5.425983 
O 	 -0.949569 	 -6.986921 	 4.774812 
O 	 -2.883521 	 2.289378 	 -6.239707 
O 	 0.975044 	 6.908587 	 -4.199384 
O 	 -6.320904 	 -1.688820 	 4.962205 
O 	 4.927392 	 -0.533694 	 5.899999 
O 	 3.823771 	 5.762976 	 1.741566 
O 	 -0.499114 	 -3.056486 	 -4.321948 
O 	 -1.717616 	 6.043135 	 -1.218012 
K 	 -6.893782 	 -6.095812 	 0.581084 
