333
conformation = 67
H 	 -7.191746 	 -3.738356 	 -5.108274 
H 	 -6.874565 	 -2.412378 	 -4.189905 
H 	 4.220806 	 -6.569015 	 0.657049 
H 	 5.236971 	 7.573800 	 -0.145642 
H 	 -5.587144 	 -3.752387 	 2.376025 
H 	 -5.454064 	 -2.623295 	 1.279680 
H 	 4.772137 	 -2.741312 	 -6.727037 
H 	 6.265357 	 -2.897708 	 -6.355605 
H 	 -6.356992 	 -5.063573 	 5.616811 
H 	 -6.931208 	 -4.668596 	 4.184795 
H 	 6.025033 	 -5.525192 	 3.348876 
H 	 6.550758 	 -4.170805 	 2.904436 
H 	 -2.920248 	 -7.222319 	 -6.304027 
H 	 -3.892478 	 -5.990834 	 -6.650395 
H 	 -6.673983 	 3.908011 	 3.374815 
H 	 -5.189851 	 3.722640 	 2.919446 
H 	 -3.202553 	 -5.687690 	 -2.522963 
H 	 -3.400008 	 -5.368568 	 -1.079471 
H 	 -5.408793 	 1.873866 	 3.199984 
H 	 -4.098380 	 1.066574 	 3.072667 
H 	 2.929493 	 -3.093000 	 -5.393392 
H 	 2.688298 	 -1.821395 	 -6.249212 
H 	 -2.663417 	 3.679374 	 3.143018 
H 	 -3.482475 	 4.906480 	 2.630730 
H 	 1.923686 	 1.537436 	 2.500106 
H 	 1.793489 	 2.199222 	 3.994685 
H 	 6.472805 	 3.313859 	 4.718137 
H 	 7.343426 	 4.368245 	 5.594554 
H 	 0.679039 	 -2.736163 	 -1.415426 
H 	 -0.288391 	 -1.495039 	 -1.525379 
H 	 5.838906 	 -2.008666 	 3.342872 
H 	 7.402943 	 -2.126712 	 3.629289 
H 	 3.289338 	 -4.881894 	 1.834348 
H 	 1.917875 	 -5.796064 	 1.744516 
H 	 -4.673475 	 6.970317 	 -0.756397 
H 	 -5.675329 	 5.712166 	 -0.880131 
H 	 -2.214291 	 6.194732 	 -4.334606 
H 	 -3.695156 	 5.640214 	 -4.092456 
H 	 -0.039291 	 5.283740 	 -2.175129 
H 	 1.163098 	 5.528362 	 -3.172894 
H 	 -2.660699 	 -0.718498 	 -4.194250 
H 	 -2.772566 	 -0.077872 	 -2.736283 
H 	 1.404120 	 3.079155 	 -2.331823 
H 	 0.957950 	 1.643471 	 -2.787510 
H 	 -7.206411 	 -6.460229 	 -4.757019 
H 	 6.250090 	 -5.709714 	 -5.269252 
H 	 -5.908478 	 -1.218192 	 7.338516 
H 	 -6.075738 	 -2.036923 	 -6.239665 
H 	 1.082712 	 7.436114 	 5.675385 
H 	 1.349667 	 -6.582969 	 6.958892 
H 	 0.547035 	 -2.845548 	 2.930601 
H 	 -0.439797 	 -1.917255 	 2.353545 
H 	 -1.367997 	 0.310994 	 1.010623 
H 	 -2.269057 	 -0.264214 	 2.076646 
H 	 1.088446 	 -0.912599 	 -3.740832 
H 	 -0.338557 	 -0.557859 	 -3.627363 
H 	 6.946287 	 0.484350 	 -1.041349 
H 	 7.387483 	 0.928821 	 0.409172 
H 	 -7.271085 	 6.166029 	 -3.608988 
H 	 7.130247 	 6.771468 	 -2.234972 
H 	 3.856994 	 -2.351927 	 1.842897 
H 	 4.816428 	 -3.147775 	 0.838486 
H 	 6.845534 	 5.855143 	 4.368820 
H 	 6.497237 	 7.354018 	 4.191345 
H 	 5.776778 	 -3.951136 	 -1.923965 
H 	 4.947033 	 -4.775132 	 -2.851326 
H 	 -7.234842 	 3.082787 	 -0.521885 
H 	 -6.588163 	 3.656911 	 0.752975 
H 	 -5.575777 	 -6.694117 	 7.320064 
H 	 -6.925985 	 -6.048479 	 -7.303701 
H 	 4.252695 	 -6.830460 	 -5.278217 
H 	 3.645566 	 -5.404890 	 -5.307186 
H 	 -5.061262 	 -7.280693 	 -3.483038 
H 	 -5.025918 	 7.535105 	 -4.985388 
H 	 0.135440 	 -5.379998 	 -2.407084 
H 	 1.088993 	 -6.558735 	 -2.874285 
H 	 1.107482 	 5.294516 	 3.736134 
H 	 0.317809 	 5.710710 	 2.487936 
H 	 4.049592 	 3.528928 	 1.434266 
H 	 3.916514 	 2.218361 	 0.734009 
H 	 -0.642733 	 0.623440 	 -1.067086 
H 	 0.645126 	 0.593415 	 -0.091166 
H 	 4.066977 	 6.201645 	 4.656779 
H 	 4.889093 	 4.844448 	 4.859417 
H 	 -4.965104 	 1.096419 	 5.535620 
H 	 -4.100864 	 1.115849 	 6.909629 
H 	 6.769020 	 -2.602561 	 1.060800 
H 	 6.659968 	 -1.906760 	 -0.282073 
H 	 -0.337603 	 3.342480 	 2.124924 
H 	 -0.835283 	 3.724272 	 0.701976 
H 	 2.108545 	 -5.119468 	 -3.916133 
H 	 1.232229 	 -3.994372 	 -4.318224 
H 	 -5.823417 	 -0.579953 	 -0.216314 
H 	 -4.496004 	 -1.179247 	 0.287865 
H 	 -3.717729 	 1.180345 	 1.044285 
H 	 -5.016285 	 1.681198 	 0.211488 
H 	 0.171787 	 6.871122 	 -4.915764 
H 	 -1.345546 	 6.323098 	 -6.209316 
H 	 -5.395298 	 4.439863 	 -5.261026 
H 	 -4.599549 	 5.039923 	 -6.391295 
H 	 -2.803726 	 -3.532577 	 -7.249888 
H 	 -4.301400 	 -3.189115 	 -7.312676 
H 	 3.111224 	 0.520150 	 0.241591 
H 	 2.441226 	 1.296445 	 -0.909727 
H 	 4.241545 	 5.454091 	 -4.346727 
H 	 5.298385 	 6.609383 	 -4.061576 
H 	 2.635906 	 2.473211 	 -4.835903 
H 	 1.768040 	 1.288309 	 -4.984436 
H 	 1.095592 	 7.321392 	 0.512839 
H 	 0.520829 	 -6.456016 	 -0.272597 
H 	 4.589085 	 -0.121676 	 2.489401 
H 	 3.821540 	 -0.940865 	 3.558003 
H 	 -7.210167 	 -4.711890 	 -2.537345 
H 	 -5.727861 	 -4.907187 	 -2.114305 
H 	 2.719872 	 -1.849796 	 -2.148380 
H 	 3.081160 	 -1.325700 	 -3.504041 
H 	 3.076957 	 -4.187725 	 -1.725787 
H 	 3.025023 	 -3.298376 	 -0.480402 
H 	 1.563990 	 5.367494 	 -0.912687 
H 	 1.188614 	 5.029758 	 0.542180 
H 	 -1.162704 	 1.856949 	 6.772720 
H 	 -1.368232 	 0.570402 	 5.927280 
H 	 2.645343 	 3.977128 	 5.034851 
H 	 1.424240 	 3.446750 	 5.975616 
H 	 5.769907 	 -0.292585 	 -2.608048 
H 	 4.800829 	 -0.609318 	 -1.487376 
H 	 -2.111388 	 2.575264 	 -1.279453 
H 	 -1.898973 	 2.531818 	 -2.797888 
H 	 -2.975821 	 -1.725669 	 -1.858482 
H 	 -2.939727 	 -3.004480 	 -0.904389 
H 	 -1.971009 	 5.273251 	 6.457570 
H 	 -0.498456 	 4.972549 	 6.988811 
H 	 -0.355840 	 -1.552737 	 7.274663 
H 	 -0.474064 	 -2.842742 	 6.422367 
H 	 -5.609418 	 5.312672 	 6.187853 
H 	 -6.563367 	 6.438297 	 6.357851 
H 	 -6.706308 	 -1.097132 	 -1.997994 
H 	 -5.350569 	 -1.827513 	 -2.265725 
H 	 -1.384829 	 -6.415122 	 -4.347094 
H 	 -1.501995 	 -4.853015 	 -4.181205 
H 	 -3.679636 	 -0.787861 	 -6.443221 
H 	 -2.856599 	 0.443009 	 -6.068143 
H 	 5.947521 	 1.992943 	 1.504093 
H 	 6.989768 	 1.426226 	 2.578534 
H 	 -3.035240 	 6.766634 	 1.572929 
H 	 -4.468443 	 6.693825 	 2.084174 
H 	 2.300386 	 -4.408928 	 3.749625 
H 	 1.739721 	 -4.108314 	 5.062971 
H 	 -2.953345 	 -6.901374 	 4.838584 
H 	 -3.636288 	 -6.829770 	 6.135093 
H 	 -2.937741 	 -3.872955 	 5.069869 
H 	 -4.290412 	 -4.231213 	 4.561559 
H 	 3.786274 	 5.719428 	 -7.044476 
H 	 2.627320 	 6.639927 	 7.295242 
H 	 4.136648 	 -6.842036 	 -3.014237 
H 	 3.925758 	 -6.177052 	 -1.619331 
H 	 -6.658597 	 1.363469 	 7.423369 
H 	 7.010995 	 0.599721 	 -6.737491 
H 	 -0.250708 	 -5.130851 	 6.562556 
H 	 -0.753076 	 -4.975196 	 5.099856 
H 	 -2.013533 	 4.284626 	 -4.102120 
H 	 -0.570992 	 3.682226 	 -4.136566 
H 	 7.054986 	 5.370243 	 0.181383 
H 	 5.661680 	 5.827441 	 0.722965 
H 	 -3.616851 	 4.693824 	 4.984223 
H 	 -3.712145 	 3.569879 	 5.989129 
H 	 -2.489058 	 -2.455022 	 1.589265 
H 	 -3.127830 	 -2.962386 	 2.821964 
H 	 -5.973448 	 7.306187 	 3.584586 
H 	 -4.898185 	 -6.608576 	 3.627850 
H 	 6.487059 	 4.965605 	 7.376626 
H 	 5.387681 	 3.921343 	 -7.281637 
H 	 2.093103 	 0.054702 	 4.292517 
H 	 1.787964 	 -1.553634 	 4.408129 
H 	 4.758082 	 3.468098 	 -3.653556 
H 	 4.987408 	 3.647412 	 -5.168435 
H 	 5.211354 	 1.155881 	 -5.148039 
H 	 5.352886 	 -0.350607 	 -5.474609 
H 	 5.898752 	 4.402816 	 -2.231335 
H 	 5.131781 	 3.367802 	 -1.363837 
H 	 0.629815 	 -5.550794 	 -5.736343 
H 	 -0.433588 	 -6.565389 	 -6.282392 
H 	 3.371647 	 2.144386 	 -6.537365 
H 	 4.299558 	 1.239018 	 -7.255607 
H 	 4.003086 	 -6.427945 	 3.820425 
H 	 4.879807 	 -5.911088 	 5.102421 
H 	 -2.507967 	 -5.006556 	 0.966708 
H 	 -3.782552 	 -4.232148 	 0.620043 
H 	 -7.151728 	 2.423251 	 -4.179384 
H 	 -7.025265 	 2.336745 	 -5.708277 
H 	 4.806363 	 -5.745840 	 7.217075 
H 	 5.477821 	 -4.430444 	 7.028892 
H 	 1.384223 	 -0.791482 	 6.574527 
H 	 1.507626 	 0.328585 	 -7.240445 
H 	 5.130916 	 1.136599 	 4.969822 
H 	 4.163676 	 2.065176 	 4.111709 
H 	 1.731366 	 4.556269 	 -7.000972 
H 	 1.121471 	 3.165989 	 -6.565373 
H 	 -3.272118 	 3.275232 	 0.558056 
H 	 -2.805437 	 4.581747 	 -0.227684 
H 	 -1.459318 	 1.643060 	 3.109888 
H 	 -0.969105 	 2.275468 	 4.525896 
H 	 -2.053788 	 -5.732001 	 2.987790 
H 	 -1.128522 	 -6.456641 	 1.842150 
H 	 -2.425855 	 -1.486336 	 5.999927 
H 	 -2.936873 	 -1.052456 	 4.657823 
H 	 -1.060875 	 7.038229 	 5.524929 
H 	 -0.496348 	 7.174056 	 4.151083 
H 	 -3.517407 	 2.701550 	 -6.226775 
H 	 -2.075996 	 2.449200 	 -5.750406 
H 	 1.622913 	 6.581498 	 -5.323853 
H 	 -2.308250 	 5.997360 	 -2.033706 
H 	 -5.373512 	 -1.333787 	 4.819475 
H 	 -6.027289 	 -2.730425 	 4.977883 
H 	 5.253229 	 -1.600895 	 6.309926 
H 	 4.008938 	 -0.924778 	 5.720317 
H 	 3.088079 	 5.949655 	 2.290461 
H 	 3.214616 	 5.801705 	 0.805004 
H 	 -0.376307 	 -2.806000 	 -3.490793 
H 	 -0.248421 	 -2.184984 	 -4.901486 
H 	 -2.031777 	 7.042736 	 -0.928746 
O 	 -7.084104 	 -2.762260 	 -5.069950 
O 	 4.822403 	 -6.434090 	 -0.071462 
O 	 -5.281429 	 -3.557629 	 1.446781 
O 	 5.677882 	 -2.784374 	 -7.167789 
O 	 -6.221881 	 -4.451132 	 4.855668 
O 	 6.778234 	 -5.120546 	 2.790177 
O 	 -3.892902 	 -6.974235 	 -6.551242 
O 	 -6.118116 	 3.382152 	 2.773655 
O 	 -3.954019 	 -5.506724 	 -1.915752 
O 	 -4.899597 	 1.144661 	 3.606475 
O 	 3.328098 	 -2.203755 	 -5.582324 
O 	 -3.450388 	 4.244325 	 3.334697 
O 	 2.297514 	 1.515181 	 3.427615 
O 	 6.893047 	 4.191214 	 4.749313 
O 	 -0.229599 	 -2.454082 	 -1.698204 
O 	 6.702734 	 -2.345763 	 2.952455 
O 	 2.739237 	 -5.612126 	 2.223010 
O 	 -5.490596 	 6.632005 	 -1.180338 
O 	 -2.780962 	 5.667679 	 -3.634347 
O 	 0.779564 	 4.839545 	 -2.495548 
O 	 -2.365535 	 -0.754394 	 -3.271913 
O 	 1.704821 	 2.132424 	 -2.308288 
O 	 7.216082 	 -5.727618 	 -5.329460 
O 	 -5.390088 	 -1.705976 	 -6.893484 
O 	 1.814380 	 -6.981138 	 6.143659 
O 	 0.533696 	 -2.075249 	 2.346439 
O 	 -2.035182 	 0.584961 	 1.686823 
O 	 0.417787 	 -0.387945 	 -4.217895 
O 	 -7.179187 	 0.873588 	 -0.567843 
O 	 6.837596 	 6.287406 	 -3.027994 
O 	 3.934070 	 -3.169053 	 1.229063 
O 	 7.170153 	 6.725960 	 4.048284 
O 	 5.649993 	 -4.078801 	 -2.887081 
O 	 -6.894549 	 3.920289 	 -0.128077 
O 	 -6.432044 	 -6.461764 	 6.888930 
O 	 4.277449 	 -5.966440 	 -5.787854 
O 	 -5.637707 	 -7.219134 	 -4.233584 
O 	 1.037391 	 -5.765462 	 -2.274239 
O 	 0.556556 	 5.986621 	 3.373295 
O 	 4.522921 	 2.990358 	 0.781855 
O 	 -0.152139 	 0.107751 	 -0.339813 
O 	 3.965275 	 5.221816 	 4.859118 
O 	 -4.824580 	 1.529653 	 6.371350 
O 	 6.399885 	 -2.746768 	 0.145899 
O 	 -0.037656 	 3.830582 	 1.335065 
O 	 1.975706 	 -4.521681 	 -4.708491 
O 	 -5.336084 	 -0.865795 	 0.556658 
O 	 -4.232265 	 1.922165 	 0.740339 
O 	 -1.507361 	 6.994828 	 -5.502035 
O 	 -4.545689 	 4.375079 	 -5.653971 
O 	 -3.682490 	 -3.933051 	 7.498308 
O 	 2.456801 	 1.191372 	 0.090042 
O 	 4.350147 	 6.435809 	 -4.225603 
O 	 2.007569 	 2.089626 	 -5.437724 
O 	 0.560543 	 -6.750624 	 0.635576 
O 	 4.438086 	 -1.046932 	 2.859233 
O 	 -6.632710 	 -5.005738 	 -1.749027 
O 	 2.638891 	 -1.035278 	 -2.692895 
O 	 2.615751 	 -3.408731 	 -1.341677 
O 	 1.661220 	 5.694222 	 0.019806 
O 	 -0.726281 	 1.284140 	 6.117017 
O 	 1.711995 	 3.585938 	 5.065077 
O 	 5.737018 	 -0.714876 	 -1.700924 
O 	 -1.927656 	 1.944151 	 -2.002484 
O 	 -3.446422 	 -2.206808 	 -1.130382 
O 	 -1.043341 	 5.599763 	 6.490506 
O 	 -0.965655 	 -2.023684 	 6.678703 
O 	 -6.439629 	 5.518795 	 6.652869 
O 	 -6.221775 	 -1.585741 	 -2.640664 
O 	 -1.655864 	 -5.700042 	 -3.756648 
O 	 -2.767473 	 -0.543367 	 -6.154605 
O 	 6.484206 	 1.191919 	 1.816300 
O 	 -3.829074 	 6.225912 	 1.505256 
O 	 2.323220 	 -3.710638 	 4.403085 
O 	 -3.845301 	 -6.784379 	 5.201807 
O 	 -3.343585 	 -4.238572 	 4.243577 
O 	 2.794852 	 5.960899 	 -6.923936 
O 	 3.820416 	 -5.978196 	 -2.629698 
O 	 7.311657 	 1.351810 	 -7.187685 
O 	 -0.443592 	 -4.470411 	 5.866056 
O 	 -1.494375 	 3.438068 	 -4.308493 
O 	 6.452548 	 6.145498 	 0.227509 
O 	 -3.815978 	 4.554369 	 5.958130 
O 	 -2.555481 	 -2.227960 	 2.508934 
O 	 -5.442398 	 -7.056124 	 2.954034 
O 	 5.719388 	 4.798083 	 -7.001809 
O 	 2.278764 	 -0.793953 	 4.799991 
O 	 4.279984 	 3.725783 	 -4.500104 
O 	 5.467423 	 0.295140 	 -4.775145 
O 	 5.599565 	 3.470222 	 -2.262020 
O 	 0.126121 	 -5.789016 	 -6.512194 
O 	 4.304432 	 2.108465 	 -6.813449 
O 	 4.815259 	 -6.596814 	 4.341375 
O 	 -2.890797 	 -4.326079 	 0.367227 
O 	 -6.865652 	 2.977839 	 -4.929204 
O 	 5.121730 	 -5.196497 	 6.484750 
O 	 1.444404 	 -0.605276 	 -7.356496 
O 	 5.009675 	 2.048765 	 4.587193 
O 	 1.044615 	 3.874589 	 -7.257497 
O 	 -2.507483 	 3.643703 	 0.069722 
O 	 -1.158641 	 2.483030 	 3.580049 
O 	 -2.063865 	 -6.291967 	 2.168920 
O 	 -3.205388 	 -1.080335 	 5.615967 
O 	 -1.015382 	 -7.194757 	 4.791432 
O 	 -2.719115 	 2.115517 	 -6.453408 
O 	 1.090860 	 6.933389 	 -4.561409 
O 	 -6.244515 	 -1.761808 	 4.859874 
O 	 4.937943 	 -0.721575 	 5.991551 
O 	 3.790957 	 5.724345 	 1.645652 
O 	 -0.406656 	 -3.065417 	 -4.495473 
O 	 -1.901729 	 6.074597 	 -1.112911 
K 	 -6.950973 	 -6.191894 	 0.511452 
