333
conformation = 25
H 	 -7.136035 	 -3.744438 	 -4.895264 
H 	 -7.145563 	 -2.243040 	 -4.217789 
H 	 4.217388 	 -6.660577 	 0.580208 
H 	 5.363915 	 -7.283981 	 -0.155851 
H 	 -5.166927 	 -3.692115 	 2.700791 
H 	 -5.639849 	 -2.695067 	 1.494180 
H 	 5.158756 	 -2.622867 	 -6.320046 
H 	 6.678386 	 -2.644423 	 -6.486053 
H 	 -6.187783 	 -5.068633 	 5.622758 
H 	 -6.771198 	 -4.922074 	 4.157294 
H 	 6.102423 	 -5.650895 	 3.233963 
H 	 6.660107 	 -4.165953 	 2.932786 
H 	 -3.071571 	 7.551689 	 -6.156806 
H 	 -3.512124 	 -5.897614 	 -6.630998 
H 	 -6.675986 	 3.482104 	 3.562392 
H 	 -5.290887 	 3.967487 	 3.085160 
H 	 -3.264394 	 -5.363721 	 -2.612957 
H 	 -3.755150 	 -4.681761 	 -1.288486 
H 	 -5.150250 	 1.718763 	 3.046145 
H 	 -3.963069 	 0.941626 	 3.338303 
H 	 2.899956 	 -2.785094 	 -5.185529 
H 	 2.745060 	 -1.442960 	 -6.092109 
H 	 -2.621844 	 3.715695 	 3.385881 
H 	 -3.368186 	 4.852091 	 2.617772 
H 	 1.899127 	 1.681941 	 2.585996 
H 	 1.965264 	 2.232892 	 4.074599 
H 	 6.256358 	 3.307500 	 5.237884 
H 	 7.400804 	 4.354802 	 5.648279 
H 	 0.872326 	 -2.831447 	 -1.441385 
H 	 -0.142760 	 -1.763411 	 -0.961138 
H 	 5.971768 	 -1.870940 	 2.936223 
H 	 7.441952 	 -2.043184 	 3.557471 
H 	 2.937382 	 -4.620447 	 1.834133 
H 	 1.939189 	 -5.976601 	 1.661949 
H 	 -4.831840 	 6.623261 	 -0.473269 
H 	 -5.833858 	 5.653018 	 -0.976035 
H 	 -2.258584 	 6.102913 	 -4.566962 
H 	 -3.581126 	 5.309899 	 -4.053391 
H 	 -0.313050 	 5.060871 	 -2.263200 
H 	 0.786772 	 5.453923 	 -3.249397 
H 	 -2.564390 	 -0.592179 	 -4.354098 
H 	 -2.203712 	 0.249807 	 -3.020917 
H 	 1.096435 	 2.865051 	 -2.541636 
H 	 1.242378 	 1.335507 	 -2.691089 
H 	 -7.414436 	 -6.285966 	 -4.586760 
H 	 6.184400 	 -5.800168 	 -5.313672 
H 	 -5.848219 	 -1.949802 	 7.112953 
H 	 -5.883922 	 -2.014442 	 -6.208978 
H 	 1.371022 	 -6.870002 	 5.421139 
H 	 1.060909 	 -6.569760 	 6.971061 
H 	 0.648015 	 -2.949062 	 2.717219 
H 	 -0.239049 	 -1.946532 	 1.933798 
H 	 -1.440198 	 0.652514 	 0.946812 
H 	 -2.234545 	 -0.379556 	 1.940760 
H 	 0.946150 	 -0.774592 	 -3.389883 
H 	 -0.431733 	 -0.252099 	 -4.001827 
H 	 7.116366 	 0.834555 	 -1.212836 
H 	 7.259078 	 1.048628 	 0.277130 
H 	 -7.277469 	 6.300771 	 -3.443188 
H 	 7.083770 	 6.941671 	 -2.207201 
H 	 3.844210 	 -2.372165 	 1.882683 
H 	 4.717303 	 -3.192038 	 0.824154 
H 	 7.020891 	 5.754302 	 3.984546 
H 	 6.394226 	 7.169860 	 4.168444 
H 	 5.731422 	 -3.856368 	 -1.912856 
H 	 5.308934 	 -4.769349 	 -3.072501 
H 	 -7.181829 	 3.095152 	 -0.400528 
H 	 -6.564631 	 3.608755 	 0.917668 
H 	 -5.732603 	 -6.785811 	 7.365815 
H 	 -7.246491 	 -6.410669 	 -7.264980 
H 	 4.096311 	 -6.972015 	 -5.516415 
H 	 3.415493 	 -5.481293 	 -5.664243 
H 	 -5.175358 	 7.465786 	 -3.405505 
H 	 -4.965581 	 -6.852284 	 -4.815197 
H 	 0.119089 	 -5.743397 	 -2.556145 
H 	 1.381736 	 -6.661501 	 -2.526776 
H 	 0.402836 	 5.524517 	 4.228485 
H 	 0.347472 	 5.402205 	 2.643067 
H 	 4.623053 	 4.130069 	 0.975986 
H 	 3.699323 	 2.912526 	 0.738259 
H 	 -0.606045 	 0.992308 	 -0.978299 
H 	 0.616713 	 0.338214 	 -0.233713 
H 	 4.083281 	 6.326885 	 4.962388 
H 	 4.725086 	 4.885663 	 5.205755 
H 	 -4.685271 	 1.708692 	 5.347188 
H 	 -4.415647 	 0.839643 	 6.581323 
H 	 6.807942 	 -2.415147 	 0.771534 
H 	 6.239731 	 -2.135955 	 -0.607648 
H 	 0.121655 	 3.383181 	 2.341051 
H 	 -0.711791 	 3.761414 	 1.075453 
H 	 2.175387 	 -4.652791 	 -3.592282 
H 	 1.133433 	 -4.024726 	 -4.576330 
H 	 -6.107034 	 -0.302542 	 0.149917 
H 	 -4.861764 	 -1.068464 	 -0.470837 
H 	 -3.501550 	 1.231121 	 0.830189 
H 	 -5.013552 	 1.345211 	 0.396017 
H 	 0.161598 	 6.863562 	 -4.910588 
H 	 -1.342192 	 6.557743 	 -6.385682 
H 	 -5.295450 	 3.618037 	 -5.596788 
H 	 -5.015438 	 4.947648 	 -6.373694 
H 	 -2.919195 	 -3.382862 	 7.495298 
H 	 -4.415593 	 -3.451991 	 -7.256280 
H 	 2.750746 	 0.389123 	 -0.175562 
H 	 2.136090 	 1.530845 	 -0.727526 
H 	 3.978032 	 5.649357 	 -4.378427 
H 	 5.235886 	 6.170374 	 -3.560924 
H 	 2.647357 	 2.567574 	 -4.874448 
H 	 1.444001 	 1.548878 	 -4.827981 
H 	 0.710425 	 7.292194 	 0.250472 
H 	 0.734626 	 -6.210551 	 -0.276303 
H 	 4.862309 	 -0.135468 	 3.022106 
H 	 3.548044 	 -0.901350 	 3.552511 
H 	 -6.953284 	 -4.512737 	 -2.434975 
H 	 -5.604455 	 -5.348461 	 -2.129304 
H 	 2.704362 	 -2.035821 	 -2.605640 
H 	 3.226299 	 -0.864874 	 -3.543778 
H 	 2.180694 	 -4.275107 	 -1.437946 
H 	 2.954107 	 -3.377127 	 -0.367622 
H 	 1.449949 	 5.447213 	 -0.979468 
H 	 1.071086 	 4.928447 	 0.467324 
H 	 -1.130206 	 1.540540 	 6.849135 
H 	 -1.046374 	 0.253014 	 6.143774 
H 	 2.437330 	 4.191953 	 5.058446 
H 	 1.386128 	 3.489314 	 6.043616 
H 	 5.968042 	 -0.911664 	 -2.690819 
H 	 4.875200 	 -0.774468 	 -1.744113 
H 	 -2.345869 	 2.462649 	 -1.356095 
H 	 -1.754162 	 2.389511 	 -2.843215 
H 	 -2.903896 	 -1.884838 	 -2.135613 
H 	 -2.921326 	 -2.556285 	 -0.699139 
H 	 -1.929659 	 5.182530 	 6.329966 
H 	 -0.342154 	 5.029575 	 6.507107 
H 	 -0.155796 	 -1.600360 	 7.119624 
H 	 -0.656437 	 -2.748471 	 6.218273 
H 	 -5.389109 	 5.220043 	 6.424514 
H 	 -6.539116 	 6.225759 	 6.338065 
H 	 -6.580843 	 -1.038583 	 -1.985833 
H 	 -5.657768 	 -2.186926 	 -2.340757 
H 	 -2.042379 	 -6.390470 	 -4.352171 
H 	 -1.594520 	 -4.915107 	 -4.244864 
H 	 -3.608262 	 -0.918752 	 -6.424201 
H 	 -2.988095 	 0.471572 	 -6.391176 
H 	 5.906068 	 1.856880 	 1.769149 
H 	 7.369914 	 1.525928 	 2.321487 
H 	 -3.257296 	 6.912900 	 1.480359 
H 	 -4.695774 	 6.782140 	 1.981018 
H 	 2.518629 	 -4.643053 	 3.886346 
H 	 2.181685 	 -4.044148 	 5.290925 
H 	 -2.822907 	 -6.915110 	 5.144312 
H 	 -4.075136 	 -6.706749 	 6.052632 
H 	 -2.739379 	 -4.451112 	 4.965309 
H 	 -4.150966 	 -4.701378 	 4.271536 
H 	 3.717889 	 5.715238 	 -6.912085 
H 	 2.596517 	 6.626798 	 7.374187 
H 	 3.641938 	 -6.856753 	 -3.020399 
H 	 4.196459 	 -6.329303 	 -1.753947 
H 	 -6.723003 	 1.289083 	 6.967037 
H 	 -7.234726 	 0.614988 	 -6.625081 
H 	 -0.428522 	 -4.719587 	 6.804348 
H 	 -0.329313 	 -5.355394 	 5.409515 
H 	 -2.120632 	 4.308194 	 -4.139727 
H 	 -0.721483 	 3.598292 	 -4.204815 
H 	 6.875804 	 5.490039 	 0.242009 
H 	 5.954413 	 6.046620 	 1.310448 
H 	 -3.699866 	 4.527083 	 5.051767 
H 	 -3.954029 	 3.764514 	 6.418890 
H 	 -2.641277 	 -2.975387 	 1.893011 
H 	 -2.593515 	 -2.551692 	 3.402396 
H 	 -6.369585 	 7.364406 	 3.190707 
H 	 -4.977720 	 -7.127780 	 3.896415 
H 	 6.523770 	 5.014925 	 -6.968189 
H 	 5.618688 	 3.779497 	 -7.229802 
H 	 1.890232 	 -0.119896 	 4.188563 
H 	 1.658913 	 -1.623364 	 4.147793 
H 	 4.582332 	 3.573636 	 -3.776290 
H 	 4.806150 	 3.927798 	 -5.418133 
H 	 5.043703 	 0.566503 	 -5.386649 
H 	 5.314816 	 -0.774708 	 -4.854759 
H 	 6.249638 	 4.336987 	 -2.387583 
H 	 5.183767 	 3.561966 	 -1.412292 
H 	 0.945189 	 -5.439937 	 -5.975292 
H 	 -0.396921 	 -6.322399 	 -5.797334 
H 	 3.408906 	 1.607920 	 -6.731597 
H 	 4.615024 	 1.541537 	 7.211054 
H 	 4.014598 	 -6.280624 	 3.683626 
H 	 4.770347 	 -5.995523 	 5.103282 
H 	 -2.725228 	 -5.005616 	 0.927412 
H 	 -4.009100 	 -4.074108 	 0.977356 
H 	 -6.933772 	 2.254819 	 -4.422202 
H 	 -7.218302 	 2.724760 	 -5.796587 
H 	 4.837570 	 -5.596458 	 7.321440 
H 	 5.312687 	 -4.274050 	 6.507183 
H 	 2.075222 	 -0.362701 	 6.891952 
H 	 1.280268 	 0.183336 	 -6.821781 
H 	 5.073208 	 1.192001 	 5.027806 
H 	 4.037042 	 1.945431 	 4.166802 
H 	 1.694744 	 4.708478 	 -7.021242 
H 	 1.225618 	 3.339490 	 -6.526263 
H 	 -3.388596 	 3.332897 	 0.210587 
H 	 -2.594253 	 4.601515 	 -0.237267 
H 	 -1.505738 	 1.778291 	 2.963990 
H 	 -1.007235 	 2.000603 	 4.403819 
H 	 -2.041458 	 -6.232645 	 3.082318 
H 	 -1.158624 	 -6.355146 	 1.720153 
H 	 -2.453875 	 -1.363525 	 6.069408 
H 	 -2.817780 	 -1.168695 	 4.513914 
H 	 -0.837802 	 7.124890 	 5.397423 
H 	 -0.659822 	 7.330954 	 3.905290 
H 	 -3.535283 	 2.811817 	 -6.603434 
H 	 -2.359805 	 2.718942 	 -5.664334 
H 	 1.737133 	 7.057990 	 -5.008509 
H 	 -2.323594 	 6.274673 	 -1.992185 
H 	 -5.450889 	 -1.287005 	 4.705830 
H 	 -6.058669 	 -2.715700 	 4.913749 
H 	 5.385411 	 -1.222284 	 6.502854 
H 	 4.199030 	 -1.215454 	 5.521833 
H 	 3.567734 	 5.636872 	 2.553318 
H 	 2.952549 	 5.699953 	 1.142784 
H 	 -0.464308 	 -2.596127 	 -3.565454 
H 	 -0.615824 	 -2.460337 	 -5.196601 
H 	 -1.462607 	 6.875795 	 -0.870536 
O 	 -7.074492 	 -2.785417 	 -5.025033 
O 	 4.736693 	 -6.482982 	 -0.221016 
O 	 -5.338838 	 -3.621517 	 1.719716 
O 	 5.831792 	 -2.749348 	 -6.988769 
O 	 -6.153069 	 -4.508720 	 4.808874 
O 	 6.794173 	 -5.157106 	 2.804001 
O 	 -3.764409 	 -6.851157 	 -6.614835 
O 	 -6.092191 	 3.472393 	 2.746699 
O 	 -3.888407 	 -5.474955 	 -1.885391 
O 	 -4.851423 	 1.051942 	 3.711935 
O 	 3.380691 	 -2.038947 	 -5.621638 
O 	 -3.436502 	 4.250044 	 3.423818 
O 	 2.194327 	 1.475069 	 3.496904 
O 	 6.871343 	 4.006996 	 4.870311 
O 	 -0.087953 	 -2.570565 	 -1.469066 
O 	 6.758566 	 -2.464128 	 2.974972 
O 	 2.717228 	 -5.528943 	 2.165122 
O 	 -5.564472 	 6.577897 	 -1.107233 
O 	 -2.729333 	 5.690608 	 -3.772434 
O 	 0.610900 	 4.841166 	 -2.552290 
O 	 -2.249846 	 -0.662819 	 -3.389168 
O 	 1.718710 	 2.139272 	 -2.509328 
O 	 7.144312 	 -5.754271 	 -5.354427 
O 	 -5.417111 	 -1.611086 	 -6.997158 
O 	 1.694908 	 -6.937071 	 6.346539 
O 	 0.642325 	 -2.003819 	 2.381052 
O 	 -2.062508 	 0.572036 	 1.728019 
O 	 0.534648 	 -0.417320 	 -4.212665 
O 	 -7.082072 	 0.981172 	 -0.519094 
O 	 6.837195 	 6.236961 	 -2.820364 
O 	 3.834314 	 -3.144352 	 1.305032 
O 	 7.246102 	 6.698966 	 4.024346 
O 	 5.860672 	 -3.984131 	 -2.877842 
O 	 -6.778216 	 3.924384 	 -0.041007 
O 	 -6.600809 	 -6.542947 	 6.914284 
O 	 4.267851 	 -5.989475 	 -5.795682 
O 	 -5.634558 	 -7.225251 	 -4.215841 
O 	 0.960905 	 -5.895201 	 -2.086034 
O 	 0.658809 	 5.967062 	 3.343911 
O 	 4.617987 	 3.163671 	 0.816921 
O 	 -0.343646 	 0.201790 	 -0.461268 
O 	 3.898475 	 5.376366 	 4.855215 
O 	 -4.787174 	 1.747358 	 6.373793 
O 	 6.357034 	 -2.865142 	 0.038551 
O 	 0.195203 	 3.750834 	 1.440372 
O 	 1.977797 	 -4.545697 	 -4.584141 
O 	 -5.326251 	 -0.862314 	 0.417831 
O 	 -4.258415 	 1.851692 	 0.712270 
O 	 -1.443241 	 6.980067 	 -5.508672 
O 	 -4.605624 	 4.356296 	 -5.687027 
O 	 -3.629414 	 -4.041332 	 -7.300061 
O 	 2.432691 	 1.201642 	 0.173676 
O 	 4.575658 	 6.451138 	 -4.180588 
O 	 1.947411 	 2.093548 	 -5.457688 
O 	 0.489300 	 -6.685544 	 0.531964 
O 	 4.353916 	 -0.991916 	 2.929181 
O 	 -6.505237 	 -5.150682 	 -1.777615 
O 	 2.741663 	 -1.051997 	 -2.710067 
O 	 2.678637 	 -3.413752 	 -1.341561 
O 	 1.571795 	 5.643642 	 -0.009113 
O 	 -0.766562 	 1.189951 	 5.978542 
O 	 1.754696 	 3.501246 	 5.098723 
O 	 5.857676 	 -0.616907 	 -1.764184 
O 	 -1.916071 	 1.822119 	 -2.035590 
O 	 -3.454093 	 -2.088714 	 -1.325264 
O 	 -1.087666 	 5.669609 	 6.452009 
O 	 -0.987492 	 -1.933384 	 6.711034 
O 	 -6.386848 	 5.278458 	 6.526645 
O 	 -6.281142 	 -1.556433 	 -2.741571 
O 	 -1.833410 	 -5.697924 	 -3.679952 
O 	 -2.820477 	 -0.476203 	 -6.109092 
O 	 6.597033 	 1.196356 	 1.842187 
O 	 -4.004768 	 6.259338 	 1.469359 
O 	 2.487002 	 -3.795574 	 4.379399 
O 	 -3.819989 	 -6.816214 	 5.139512 
O 	 -3.336752 	 -4.186246 	 4.245764 
O 	 2.795341 	 6.013190 	 -6.777977 
O 	 3.885277 	 -6.032696 	 -2.608580 
O 	 7.452372 	 1.344036 	 -7.224080 
O 	 -0.345534 	 -4.520071 	 5.878249 
O 	 -1.667476 	 3.420305 	 -4.336109 
O 	 6.389830 	 6.321440 	 0.451814 
O 	 -3.652940 	 4.592624 	 6.032187 
O 	 -2.594833 	 -2.159436 	 2.493191 
O 	 -5.490504 	 -7.099236 	 2.990799 
O 	 5.629493 	 4.738345 	 -7.047093 
O 	 2.209824 	 -0.946494 	 4.642957 
O 	 4.205206 	 3.723107 	 -4.670897 
O 	 5.612184 	 0.133845 	 -4.716795 
O 	 5.716452 	 3.522692 	 -2.253205 
O 	 0.093149 	 -5.700249 	 -6.423125 
O 	 4.359488 	 1.900462 	 -6.833763 
O 	 4.730461 	 -6.600395 	 4.266707 
O 	 -3.080440 	 -4.227732 	 0.431887 
O 	 -6.823850 	 3.014414 	 -4.989316 
O 	 5.224096 	 -5.264625 	 6.505719 
O 	 1.600912 	 -0.618946 	 -7.218808 
O 	 4.963810 	 2.019047 	 4.501247 
O 	 1.032075 	 4.006995 	 -7.238516 
O 	 -2.465180 	 3.691316 	 0.098216 
O 	 -1.280905 	 2.495965 	 3.576489 
O 	 -2.012687 	 -6.311530 	 2.113005 
O 	 -3.186325 	 -1.062459 	 5.415942 
O 	 -0.968114 	 -7.063744 	 4.706109 
O 	 -2.844950 	 2.216828 	 -6.332419 
O 	 1.012295 	 6.875812 	 -4.371070 
O 	 -6.308455 	 -1.752456 	 4.861012 
O 	 4.943813 	 -0.618760 	 5.843252 
O 	 3.814834 	 5.716668 	 1.636652 
O 	 -0.460152 	 -3.044969 	 -4.429735 
O 	 -1.768287 	 6.003170 	 -1.249799 
K 	 -6.905435 	 -6.159325 	 0.485883 
