333
conformation = 16
H 	 -7.320345 	 -3.658694 	 -4.654699 
H 	 -6.989153 	 -2.332379 	 -4.047753 
H 	 4.062069 	 -6.385969 	 0.601946 
H 	 5.208075 	 7.585399 	 -0.056095 
H 	 -5.121205 	 -3.489664 	 2.801191 
H 	 -5.544778 	 -2.662183 	 1.599979 
H 	 5.112018 	 -2.664847 	 -6.249142 
H 	 6.641903 	 -2.538288 	 -6.322328 
H 	 -6.301267 	 -5.089421 	 5.644021 
H 	 -6.835964 	 -4.785605 	 4.282647 
H 	 6.155558 	 -5.582085 	 3.450380 
H 	 6.683130 	 -4.138441 	 3.006287 
H 	 -2.928533 	 -7.265776 	 -6.248682 
H 	 -3.420721 	 -5.831682 	 -6.582580 
H 	 -6.730467 	 3.595526 	 3.592000 
H 	 -5.327625 	 4.023713 	 3.110391 
H 	 -3.202333 	 -5.417205 	 -2.538725 
H 	 -3.738959 	 -4.708987 	 -1.210943 
H 	 -5.221525 	 1.699303 	 3.168075 
H 	 -3.960689 	 0.879018 	 3.450377 
H 	 2.971498 	 -2.675667 	 -5.082765 
H 	 2.692906 	 -1.437309 	 -5.988491 
H 	 -2.704547 	 3.628937 	 3.517167 
H 	 -3.379823 	 4.881373 	 2.732454 
H 	 1.918104 	 1.744154 	 2.706366 
H 	 1.812809 	 2.272819 	 4.196894 
H 	 6.263895 	 3.220048 	 5.126147 
H 	 7.292826 	 4.318293 	 5.808094 
H 	 0.886102 	 -2.705777 	 -1.171355 
H 	 -0.200413 	 -1.734711 	 -0.836524 
H 	 5.971853 	 -1.944732 	 3.051450 
H 	 7.269599 	 -2.080599 	 3.810428 
H 	 2.855871 	 -4.639419 	 1.785954 
H 	 1.995972 	 -5.856751 	 1.686380 
H 	 -4.868810 	 6.511263 	 -0.335102 
H 	 -6.028745 	 5.752029 	 -0.809401 
H 	 -2.231793 	 6.305862 	 -4.543310 
H 	 -3.561747 	 5.463951 	 -4.119949 
H 	 -0.352331 	 5.123348 	 -2.167850 
H 	 0.784865 	 5.602463 	 -3.186693 
H 	 -2.573011 	 -0.378115 	 -4.260140 
H 	 -2.235177 	 0.281767 	 -2.879040 
H 	 1.056601 	 2.917654 	 -2.425535 
H 	 1.273930 	 1.371329 	 -2.664877 
H 	 7.434786 	 -6.121078 	 -4.517736 
H 	 6.151686 	 -5.737351 	 -5.166385 
H 	 -5.828279 	 -1.856494 	 7.123925 
H 	 -5.898521 	 -1.964768 	 -6.206276 
H 	 1.388170 	 -6.663558 	 5.581961 
H 	 0.981335 	 -6.516367 	 7.038421 
H 	 0.838995 	 -2.897142 	 2.742854 
H 	 -0.238229 	 -1.869460 	 2.119553 
H 	 -1.435348 	 0.521271 	 1.022104 
H 	 -2.290744 	 -0.373123 	 2.039681 
H 	 0.963362 	 -0.836262 	 -3.376423 
H 	 -0.422818 	 -0.325735 	 -3.956249 
H 	 7.263511 	 0.823096 	 -1.192245 
H 	 7.195780 	 1.228134 	 0.344146 
H 	 -7.401381 	 6.416422 	 -3.403713 
H 	 7.122525 	 6.958027 	 -2.046677 
H 	 3.913262 	 -2.293119 	 1.861355 
H 	 4.713543 	 -3.201019 	 1.041351 
H 	 7.039807 	 5.806475 	 3.931678 
H 	 6.299867 	 7.167456 	 4.107383 
H 	 5.668037 	 -3.705037 	 -1.864182 
H 	 5.338867 	 -4.665283 	 -3.012354 
H 	 -6.994178 	 3.123048 	 -0.315123 
H 	 -6.476475 	 3.853066 	 1.009429 
H 	 -5.876094 	 -6.661008 	 -7.266218 
H 	 -7.368841 	 -6.334817 	 -7.198201 
H 	 4.104051 	 -6.874166 	 -5.518759 
H 	 3.450207 	 -5.446325 	 -5.502795 
H 	 -5.275561 	 -7.260289 	 -3.190367 
H 	 -4.958114 	 -6.842717 	 -4.760611 
H 	 0.125296 	 -5.854466 	 -2.523915 
H 	 1.420627 	 -6.541569 	 -2.434955 
H 	 0.237032 	 5.670752 	 4.273712 
H 	 0.296017 	 5.357596 	 2.762832 
H 	 4.656467 	 4.263059 	 0.965458 
H 	 3.707057 	 3.000469 	 0.880815 
H 	 -0.726049 	 0.953577 	 -1.014665 
H 	 0.520607 	 0.576352 	 -0.136381 
H 	 4.051741 	 6.392805 	 5.071875 
H 	 4.692925 	 5.038610 	 5.280694 
H 	 -4.784210 	 1.850478 	 5.470644 
H 	 -4.408454 	 0.964338 	 6.505725 
H 	 6.763904 	 -2.416495 	 0.847154 
H 	 6.230938 	 -2.177540 	 -0.601594 
H 	 0.181267 	 3.259856 	 2.431354 
H 	 -0.682647 	 3.711640 	 1.242355 
H 	 2.264030 	 -4.627652 	 -3.557449 
H 	 1.130682 	 -3.975789 	 -4.550948 
H 	 -6.158855 	 -0.331022 	 0.312138 
H 	 -4.955181 	 -0.963233 	 -0.469249 
H 	 -3.595509 	 1.226383 	 1.090507 
H 	 -4.906940 	 1.264440 	 0.407858 
H 	 0.103532 	 6.932290 	 -4.721598 
H 	 -1.264912 	 6.546709 	 -6.260243 
H 	 -5.235846 	 3.637630 	 -5.294551 
H 	 -5.213759 	 4.951291 	 -6.160729 
H 	 -2.903761 	 -3.361149 	 -7.303525 
H 	 -4.389775 	 -3.456909 	 -6.950259 
H 	 2.838599 	 0.423244 	 -0.091874 
H 	 2.066707 	 1.813048 	 -0.459838 
H 	 4.096828 	 5.711016 	 -4.188759 
H 	 5.342801 	 6.216943 	 -3.530285 
H 	 2.646402 	 2.661752 	 -4.892689 
H 	 1.370849 	 1.581745 	 -4.736851 
H 	 0.652547 	 7.306841 	 0.459573 
H 	 0.608219 	 -6.167047 	 -0.351040 
H 	 4.880349 	 -0.154432 	 3.191794 
H 	 3.596770 	 -0.873853 	 3.750566 
H 	 -6.992273 	 -4.567952 	 -2.316677 
H 	 -5.530024 	 -5.258603 	 -1.961620 
H 	 2.754347 	 -1.989698 	 -2.558020 
H 	 3.168089 	 -0.839281 	 -3.527702 
H 	 2.246131 	 -4.267554 	 -1.282123 
H 	 2.965127 	 -3.238161 	 -0.292353 
H 	 1.521350 	 5.503431 	 -0.878765 
H 	 1.010945 	 4.875245 	 0.427193 
H 	 -1.278563 	 1.663635 	 6.783132 
H 	 -0.895391 	 0.235596 	 6.158922 
H 	 2.405100 	 4.238704 	 5.210114 
H 	 1.514919 	 3.558997 	 6.154952 
H 	 6.202420 	 -0.909804 	 -2.537112 
H 	 4.861515 	 -0.599440 	 -1.701587 
H 	 -2.164977 	 2.488588 	 -1.273097 
H 	 -1.658730 	 2.429023 	 -2.695330 
H 	 -2.944388 	 -1.511836 	 -1.953166 
H 	 -2.856249 	 -2.541066 	 -0.745369 
H 	 -1.896525 	 5.141208 	 6.294157 
H 	 -0.362948 	 5.108838 	 6.764737 
H 	 -0.144831 	 -1.475738 	 7.125931 
H 	 -0.760159 	 -2.483000 	 6.098808 
H 	 -5.417965 	 5.146760 	 6.358406 
H 	 -6.691645 	 6.170743 	 6.358512 
H 	 -6.619583 	 -1.000461 	 -1.869864 
H 	 -5.711844 	 -2.189521 	 -2.303170 
H 	 -2.142657 	 -6.309824 	 -4.277904 
H 	 -1.534913 	 -4.849075 	 -4.103373 
H 	 -3.623246 	 -0.909888 	 -6.337256 
H 	 -2.968248 	 0.533130 	 -6.098348 
H 	 5.937890 	 1.940518 	 1.911113 
H 	 7.287744 	 1.714982 	 2.537564 
H 	 -3.390927 	 7.081904 	 1.525815 
H 	 -4.685682 	 6.744828 	 2.144492 
H 	 2.524458 	 -4.579384 	 3.878883 
H 	 2.237313 	 -4.024351 	 5.398518 
H 	 -2.850987 	 -6.983754 	 5.187185 
H 	 -4.034804 	 -6.744346 	 6.188201 
H 	 -2.753215 	 -4.474190 	 5.030526 
H 	 -4.056152 	 -4.775021 	 4.352577 
H 	 3.652325 	 5.715321 	 -6.764467 
H 	 2.668202 	 6.787365 	 7.525805 
H 	 3.913719 	 -6.900421 	 -2.981272 
H 	 4.120942 	 -6.142216 	 -1.557769 
H 	 -6.646679 	 1.410649 	 7.116686 
H 	 -7.100285 	 0.556768 	 -6.669615 
H 	 -0.379113 	 -4.671774 	 6.955149 
H 	 -0.306429 	 -5.409149 	 5.599926 
H 	 -2.069466 	 4.378344 	 -3.956186 
H 	 -0.725967 	 3.623763 	 -4.334598 
H 	 6.890550 	 5.590519 	 0.337366 
H 	 5.930493 	 6.204978 	 1.446089 
H 	 -3.723514 	 4.545033 	 5.194730 
H 	 -3.806279 	 3.774818 	 6.540155 
H 	 -2.766694 	 -2.897971 	 1.989991 
H 	 -2.411612 	 -2.461538 	 3.464862 
H 	 -6.311014 	 7.266315 	 3.157656 
H 	 -5.019428 	 -7.204968 	 3.900699 
H 	 6.530589 	 4.975925 	 -6.687549 
H 	 5.646087 	 3.792174 	 -7.156900 
H 	 1.858517 	 -0.132704 	 4.262374 
H 	 1.679214 	 -1.645292 	 4.251345 
H 	 4.758894 	 3.718199 	 -3.837850 
H 	 4.749479 	 3.915628 	 -5.376951 
H 	 5.094343 	 0.617563 	 -5.299159 
H 	 5.287702 	 -0.796161 	 -4.658378 
H 	 6.351013 	 4.336585 	 -2.225307 
H 	 5.436622 	 3.636473 	 -1.253466 
H 	 0.885568 	 -5.518880 	 -5.741974 
H 	 -0.522679 	 -6.201420 	 -5.820213 
H 	 3.457574 	 1.581643 	 -6.625271 
H 	 4.687333 	 1.605376 	 7.233035 
H 	 3.943474 	 -6.290524 	 3.772545 
H 	 4.720868 	 -5.955180 	 5.151036 
H 	 -2.704467 	 -5.012546 	 0.860918 
H 	 -4.024787 	 -4.189305 	 0.976398 
H 	 -6.806706 	 2.330023 	 -4.302184 
H 	 -7.248162 	 2.673260 	 -5.757795 
H 	 4.878121 	 -5.423057 	 7.518983 
H 	 5.433972 	 -4.288996 	 6.566058 
H 	 2.096502 	 -0.199369 	 7.025833 
H 	 1.283073 	 0.243230 	 -6.676417 
H 	 5.093100 	 1.178664 	 4.979369 
H 	 4.013184 	 1.946537 	 4.254382 
H 	 1.701725 	 4.787348 	 -6.914528 
H 	 1.080527 	 3.360967 	 -6.510869 
H 	 -3.337290 	 3.394142 	 0.503104 
H 	 -2.514823 	 4.637353 	 -0.121317 
H 	 -1.541730 	 1.790481 	 3.048584 
H 	 -1.021365 	 2.118025 	 4.465703 
H 	 -2.003445 	 -6.202606 	 3.125504 
H 	 -1.046981 	 -6.335589 	 1.902319 
H 	 -2.542336 	 -1.263882 	 6.083358 
H 	 -2.807705 	 -1.135365 	 4.594591 
H 	 -0.852478 	 7.215531 	 5.524941 
H 	 -0.560043 	 7.490456 	 3.980668 
H 	 -3.501392 	 2.877840 	 -6.617452 
H 	 -2.324764 	 2.841672 	 -5.592709 
H 	 1.739665 	 6.801075 	 -4.834071 
H 	 -2.307152 	 6.279163 	 -1.968773 
H 	 -5.440593 	 -1.291112 	 4.748473 
H 	 -6.204234 	 -2.666419 	 5.006352 
H 	 5.510246 	 -0.902998 	 6.590495 
H 	 4.311202 	 -1.234269 	 5.599303 
H 	 3.770436 	 5.606631 	 2.682193 
H 	 2.968855 	 5.804775 	 1.332960 
H 	 -0.459517 	 -2.517846 	 -3.541473 
H 	 -0.637167 	 -2.365447 	 -5.038760 
H 	 -1.358066 	 6.854211 	 -0.808911 
O 	 -7.072378 	 -2.759581 	 -4.955413 
O 	 4.729662 	 -6.472534 	 -0.145447 
O 	 -5.380802 	 -3.598876 	 1.879565 
O 	 5.860588 	 -2.680686 	 -6.865380 
O 	 -6.121543 	 -4.498045 	 4.879941 
O 	 6.796089 	 -5.124091 	 2.892861 
O 	 -3.754955 	 -6.753872 	 -6.540532 
O 	 -6.104939 	 3.536289 	 2.829346 
O 	 -3.878570 	 -5.423369 	 -1.805264 
O 	 -4.826339 	 1.062158 	 3.822979 
O 	 3.405103 	 -1.937058 	 -5.535384 
O 	 -3.435637 	 4.307577 	 3.519950 
O 	 2.167920 	 1.520320 	 3.596261 
O 	 6.870757 	 3.996824 	 4.992759 
O 	 -0.058639 	 -2.565565 	 -1.335906 
O 	 6.779453 	 -2.443325 	 3.042806 
O 	 2.717875 	 -5.473894 	 2.242809 
O 	 -5.578293 	 6.597989 	 -1.004275 
O 	 -2.745282 	 5.745725 	 -3.728928 
O 	 0.544755 	 4.878659 	 -2.485987 
O 	 -2.206150 	 -0.590450 	 -3.362739 
O 	 1.720375 	 2.175372 	 -2.470055 
O 	 7.125892 	 -5.706801 	 -5.289632 
O 	 -5.434115 	 -1.552219 	 -6.942115 
O 	 1.667312 	 -6.888492 	 6.487387 
O 	 0.663458 	 -1.949332 	 2.466237 
O 	 -2.066026 	 0.601390 	 1.824931 
O 	 0.553463 	 -0.318383 	 -4.125043 
O 	 -7.077381 	 1.073103 	 -0.432389 
O 	 6.865339 	 6.263362 	 -2.662692 
O 	 3.786777 	 -3.114312 	 1.379802 
O 	 7.240758 	 6.744857 	 4.102549 
O 	 5.927842 	 -3.903239 	 -2.785003 
O 	 -6.765422 	 3.985598 	 0.072192 
O 	 -6.636313 	 -6.530929 	 7.016088 
O 	 4.260172 	 -5.965963 	 -5.719181 
O 	 -5.636463 	 -7.199241 	 -4.119697 
O 	 0.909376 	 -5.881638 	 -1.949913 
O 	 0.683593 	 5.995203 	 3.427159 
O 	 4.648668 	 3.262495 	 0.904575 
O 	 -0.397834 	 0.275624 	 -0.398579 
O 	 3.876573 	 5.473569 	 4.932893 
O 	 -4.790736 	 1.848960 	 6.452623 
O 	 6.338842 	 -2.851887 	 0.096759 
O 	 0.234838 	 3.781290 	 1.561380 
O 	 1.958999 	 -4.476382 	 -4.459781 
O 	 -5.321947 	 -0.839124 	 0.470038 
O 	 -4.292053 	 1.894950 	 0.784152 
O 	 -1.427756 	 7.026439 	 -5.428005 
O 	 -4.618060 	 4.399050 	 -5.623965 
O 	 -3.611305 	 -4.025039 	 -7.195433 
O 	 2.408844 	 1.233003 	 0.264734 
O 	 4.577889 	 6.533265 	 -4.097042 
O 	 1.914456 	 2.134513 	 -5.363408 
O 	 0.461369 	 -6.615300 	 0.598840 
O 	 4.319106 	 -0.904004 	 3.024268 
O 	 -6.487992 	 -5.137294 	 -1.730766 
O 	 2.791653 	 -0.997933 	 -2.618649 
O 	 2.668093 	 -3.389241 	 -1.239862 
O 	 1.534777 	 5.671244 	 0.070766 
O 	 -0.786120 	 1.200398 	 6.054389 
O 	 1.754743 	 3.543594 	 5.181905 
O 	 5.852116 	 -0.558280 	 -1.719755 
O 	 -1.918722 	 1.832504 	 -1.967809 
O 	 -3.473064 	 -2.013535 	 -1.301148 
O 	 -1.112871 	 5.740757 	 6.530764 
O 	 -0.976744 	 -1.884370 	 6.816836 
O 	 -6.357673 	 5.274129 	 6.600047 
O 	 -6.298002 	 -1.498916 	 -2.675494 
O 	 -1.875150 	 -5.641685 	 -3.582947 
O 	 -2.847495 	 -0.427443 	 -6.010820 
O 	 6.618276 	 1.228965 	 1.937140 
O 	 -4.038875 	 6.317214 	 1.534322 
O 	 2.516685 	 -3.773611 	 4.466343 
O 	 -3.820781 	 -6.787742 	 5.225472 
O 	 -3.330502 	 -4.120247 	 4.325512 
O 	 2.793020 	 6.085989 	 -6.660497 
O 	 3.870731 	 -6.013324 	 -2.552469 
O 	 7.482527 	 1.395840 	 -7.157838 
O 	 -0.328301 	 -4.491451 	 5.974531 
O 	 -1.688980 	 3.442417 	 -4.232036 
O 	 6.380873 	 6.402490 	 0.601554 
O 	 -3.630330 	 4.650563 	 6.159855 
O 	 -2.589032 	 -2.091774 	 2.575945 
O 	 -5.521937 	 -7.054478 	 3.085605 
O 	 5.594131 	 4.764120 	 -6.980590 
O 	 2.178642 	 -0.930857 	 4.691365 
O 	 4.147113 	 3.759643 	 -4.612870 
O 	 5.643289 	 0.118621 	 -4.623628 
O 	 5.734990 	 3.580055 	 -2.159832 
O 	 0.084967 	 -5.631150 	 -6.339595 
O 	 4.396714 	 1.864643 	 -6.787057 
O 	 4.695405 	 -6.571307 	 4.325303 
O 	 -3.146849 	 -4.142805 	 0.582794 
O 	 -6.844305 	 3.065084 	 -4.923446 
O 	 5.241034 	 -5.241758 	 6.595143 
O 	 1.638862 	 -0.591272 	 -7.099739 
O 	 4.947162 	 2.041716 	 4.580093 
O 	 1.017787 	 4.087269 	 -7.149555 
O 	 -2.447047 	 3.755431 	 0.182020 
O 	 -1.316687 	 2.549732 	 3.647001 
O 	 -2.009797 	 -6.274137 	 2.151833 
O 	 -3.198344 	 -0.992783 	 5.443009 
O 	 -0.954921 	 -6.994699 	 4.777168 
O 	 -2.879123 	 2.283878 	 -6.239610 
O 	 0.983315 	 6.910551 	 -4.219035 
O 	 -6.318401 	 -1.692872 	 4.957731 
O 	 4.929451 	 -0.545632 	 5.906180 
O 	 3.817461 	 5.761390 	 1.735092 
O 	 -0.491252 	 -3.041290 	 -4.324067 
O 	 -1.728262 	 6.044172 	 -1.204550 
K 	 -6.896915 	 -6.100745 	 0.578637 
