333
conformation = 42
H 	 -7.003640 	 -3.631089 	 -4.925752 
H 	 -7.102881 	 -2.344625 	 -4.163021 
H 	 4.328771 	 -6.624764 	 0.559699 
H 	 5.549645 	 -7.097720 	 -0.333593 
H 	 -5.257122 	 -3.635459 	 2.553333 
H 	 -5.477049 	 -2.554410 	 1.462218 
H 	 5.170887 	 -2.434074 	 -6.492536 
H 	 6.694127 	 -2.729225 	 -6.547347 
H 	 -6.106705 	 -4.957091 	 5.589152 
H 	 -6.610860 	 -4.922001 	 4.128864 
H 	 6.091875 	 -5.468502 	 3.091495 
H 	 6.621935 	 -4.093065 	 2.842315 
H 	 -2.967580 	 -7.154918 	 -6.115043 
H 	 -3.520764 	 -5.858143 	 -6.648329 
H 	 -6.645790 	 3.612389 	 3.481892 
H 	 -5.064138 	 3.808165 	 2.941327 
H 	 -3.174963 	 -5.277094 	 -2.635162 
H 	 -3.561683 	 -4.715846 	 -1.242804 
H 	 -5.135686 	 1.945484 	 3.082279 
H 	 -3.878868 	 1.013446 	 3.358943 
H 	 2.852846 	 -2.758647 	 -5.358111 
H 	 2.817653 	 -1.479802 	 -6.194564 
H 	 -2.517081 	 3.797159 	 3.351043 
H 	 -3.398570 	 5.081504 	 2.653781 
H 	 2.015298 	 1.712409 	 2.515986 
H 	 2.069763 	 2.351435 	 3.962433 
H 	 6.336833 	 3.482247 	 5.166022 
H 	 -7.235043 	 4.500469 	 5.416134 
H 	 0.910137 	 -2.715665 	 -1.569044 
H 	 -0.044404 	 -1.558544 	 -1.205792 
H 	 6.032133 	 -1.764723 	 3.106066 
H 	 -7.318495 	 -1.854501 	 3.328437 
H 	 3.137399 	 -4.603652 	 1.775350 
H 	 1.956860 	 -5.737597 	 1.622460 
H 	 -4.698349 	 6.896129 	 -0.622805 
H 	 -5.542379 	 5.727975 	 -1.117033 
H 	 -2.182496 	 6.288612 	 -4.587700 
H 	 -3.539851 	 5.529398 	 -4.064567 
H 	 -0.116162 	 5.231314 	 -2.251165 
H 	 0.984216 	 5.487958 	 -3.312064 
H 	 -2.549633 	 -0.612304 	 -4.330235 
H 	 -2.392415 	 0.291001 	 -3.025178 
H 	 1.279499 	 3.023010 	 -2.598130 
H 	 1.226025 	 1.525498 	 -2.738765 
H 	 -7.253334 	 -6.337337 	 -4.774419 
H 	 6.291601 	 -5.723636 	 -5.375181 
H 	 -5.851344 	 -1.675980 	 7.111155 
H 	 -5.869970 	 -1.937154 	 -6.250388 
H 	 1.282183 	 -7.001914 	 5.416637 
H 	 1.159246 	 -6.482279 	 6.799493 
H 	 0.618418 	 -2.850461 	 2.756088 
H 	 -0.189480 	 -1.828022 	 1.898079 
H 	 -1.254232 	 0.625296 	 0.962077 
H 	 -2.047126 	 -0.285222 	 1.817294 
H 	 1.118860 	 -0.598665 	 -3.458434 
H 	 -0.356553 	 -0.267733 	 -3.924714 
H 	 7.087434 	 0.925058 	 -1.175308 
H 	 7.467561 	 0.962038 	 0.307253 
H 	 -7.152766 	 6.209693 	 -3.483385 
H 	 7.090811 	 6.984034 	 -2.262170 
H 	 3.976876 	 -2.293598 	 1.837180 
H 	 4.885774 	 -2.935902 	 0.820253 
H 	 7.042640 	 5.875385 	 4.201936 
H 	 6.569047 	 7.355363 	 4.249663 
H 	 5.925966 	 -3.938258 	 -1.948839 
H 	 5.268375 	 -4.713732 	 -3.073661 
H 	 -7.223999 	 3.294948 	 -0.593878 
H 	 -6.465160 	 3.681319 	 0.829904 
H 	 -5.584218 	 -6.714318 	 7.266758 
H 	 -6.923511 	 -6.202407 	 -7.221229 
H 	 4.272071 	 -6.802791 	 -5.360786 
H 	 3.512120 	 -5.393602 	 -5.610718 
H 	 -4.990888 	 7.467390 	 -3.550864 
H 	 -4.920944 	 -6.838304 	 -4.962435 
H 	 0.196744 	 -5.583343 	 -2.518265 
H 	 1.298778 	 -6.580194 	 -2.698750 
H 	 0.855016 	 5.311826 	 3.985804 
H 	 0.493979 	 5.525546 	 2.561432 
H 	 4.457993 	 4.022148 	 1.221337 
H 	 3.803223 	 2.786634 	 0.615243 
H 	 -0.443882 	 1.011232 	 -1.021612 
H 	 0.750673 	 0.391426 	 -0.134449 
H 	 4.226798 	 6.344699 	 4.810275 
H 	 4.893057 	 4.946921 	 5.084005 
H 	 -4.657235 	 1.556169 	 5.301295 
H 	 -4.313538 	 0.983467 	 6.803810 
H 	 6.920012 	 -2.481014 	 0.856384 
H 	 6.394558 	 -1.935545 	 -0.542796 
H 	 -0.038962 	 3.536179 	 2.231871 
H 	 -0.685697 	 3.839585 	 0.936586 
H 	 2.306926 	 -4.837171 	 -3.752850 
H 	 1.251902 	 -3.926764 	 -4.550156 
H 	 -5.904629 	 -0.233013 	 -0.133233 
H 	 -4.510420 	 -1.099231 	 -0.182927 
H 	 -3.477323 	 1.231545 	 0.721247 
H 	 -4.917537 	 1.535443 	 0.336251 
H 	 0.222622 	 6.922130 	 -4.965832 
H 	 -1.321042 	 6.694485 	 -6.457438 
H 	 -5.360901 	 3.951092 	 -5.573898 
H 	 -4.641439 	 5.105429 	 -6.444055 
H 	 -2.790204 	 -3.327709 	 7.438486 
H 	 -4.325602 	 -3.297131 	 7.391464 
H 	 2.967975 	 0.455342 	 0.098938 
H 	 2.424530 	 1.687575 	 -0.822423 
H 	 4.165584 	 5.617439 	 -4.479042 
H 	 5.312015 	 6.315359 	 -3.629654 
H 	 2.787280 	 2.651779 	 -4.956551 
H 	 1.637276 	 1.530970 	 -4.917685 
H 	 0.995410 	 7.383575 	 0.313542 
H 	 0.790211 	 -6.086381 	 -0.249272 
H 	 4.795406 	 -0.005076 	 2.729096 
H 	 3.662785 	 -0.876574 	 3.443278 
H 	 -6.956183 	 -4.412136 	 -2.442389 
H 	 -5.573629 	 -5.214597 	 -2.197366 
H 	 2.901009 	 -1.909158 	 -2.465321 
H 	 3.312146 	 -0.901868 	 -3.578372 
H 	 2.465877 	 -4.253776 	 -1.587848 
H 	 3.037021 	 -3.270480 	 -0.434748 
H 	 1.450779 	 5.424261 	 -0.968367 
H 	 1.234206 	 5.117896 	 0.542483 
H 	 -0.929313 	 1.801290 	 6.803803 
H 	 -1.093478 	 0.432472 	 5.887746 
H 	 2.550934 	 4.258977 	 5.030797 
H 	 1.532366 	 3.612336 	 6.022274 
H 	 6.004708 	 -0.561894 	 -2.744733 
H 	 4.957663 	 -0.627723 	 -1.557583 
H 	 -2.382455 	 2.511532 	 -1.404662 
H 	 -1.918981 	 2.491708 	 -2.913835 
H 	 -2.793967 	 -2.059492 	 -2.111652 
H 	 -2.852662 	 -2.554566 	 -0.677306 
H 	 -1.845434 	 5.327007 	 6.427988 
H 	 -0.369176 	 4.950308 	 6.519270 
H 	 -0.176175 	 -1.450165 	 7.169737 
H 	 -0.597963 	 -2.797016 	 6.379300 
H 	 -5.333267 	 5.267431 	 6.408007 
H 	 -6.458275 	 6.412311 	 6.378418 
H 	 -6.490230 	 -0.922052 	 -2.026189 
H 	 -5.433787 	 -1.981590 	 -2.368875 
H 	 -1.643877 	 -6.398674 	 -4.351725 
H 	 -1.532677 	 -4.791185 	 -4.279972 
H 	 -3.518276 	 -0.839757 	 -6.438618 
H 	 -2.777783 	 0.589308 	 -6.391787 
H 	 6.083572 	 2.056734 	 1.721044 
H 	 7.405475 	 1.652800 	 2.280408 
H 	 -2.993610 	 6.811063 	 1.505047 
H 	 -4.498423 	 6.923736 	 1.980130 
H 	 2.543789 	 -4.529237 	 3.843703 
H 	 2.120069 	 -3.932513 	 5.215154 
H 	 -2.740128 	 -6.780646 	 5.055417 
H 	 -3.901066 	 -6.588556 	 6.042035 
H 	 -2.782735 	 -4.341900 	 5.025265 
H 	 -4.108804 	 -4.450341 	 4.496837 
H 	 3.830033 	 5.880056 	 -7.031692 
H 	 2.591822 	 6.573979 	 7.235080 
H 	 3.698743 	 -6.641402 	 -3.188421 
H 	 4.253900 	 -6.259844 	 -1.794804 
H 	 -6.619890 	 1.357325 	 7.017452 
H 	 -7.363526 	 0.716872 	 -6.585740 
H 	 -0.328621 	 -4.869013 	 6.655565 
H 	 -0.424884 	 -5.141178 	 5.225457 
H 	 -2.016069 	 4.375423 	 -4.154924 
H 	 -0.622078 	 3.774171 	 -4.125901 
H 	 7.040036 	 5.559188 	 0.069912 
H 	 5.900725 	 6.131833 	 1.096256 
H 	 -3.493225 	 4.609456 	 4.929291 
H 	 -3.885336 	 3.757911 	 6.126636 
H 	 -2.429808 	 -2.765228 	 1.698455 
H 	 -2.886024 	 -2.699239 	 3.166110 
H 	 -6.227799 	 -7.192966 	 3.404389 
H 	 -4.750183 	 -6.761336 	 3.733125 
H 	 6.638019 	 5.102493 	 -7.305243 
H 	 5.729735 	 3.901105 	 -7.296902 
H 	 2.129327 	 0.104207 	 4.280806 
H 	 1.786887 	 -1.528563 	 4.209271 
H 	 4.826373 	 3.540714 	 -3.846681 
H 	 5.170145 	 4.005304 	 -5.137970 
H 	 5.241470 	 0.913866 	 -5.414892 
H 	 5.491693 	 -0.607285 	 -5.115966 
H 	 6.122375 	 4.509570 	 -2.306998 
H 	 5.134960 	 3.684330 	 -1.553808 
H 	 0.981214 	 -5.263111 	 -5.986288 
H 	 -0.144815 	 -6.427155 	 -5.960295 
H 	 3.416345 	 2.006062 	 -6.704341 
H 	 4.646218 	 1.470727 	 7.345489 
H 	 4.191394 	 -6.144483 	 3.649393 
H 	 4.901503 	 -5.906252 	 5.051784 
H 	 -2.602127 	 -4.838777 	 1.009408 
H 	 -3.749819 	 -3.703827 	 0.751553 
H 	 -6.992554 	 2.367379 	 -4.445425 
H 	 -7.033240 	 2.780139 	 -5.850837 
H 	 4.868426 	 -5.528007 	 7.223016 
H 	 5.307773 	 -4.218368 	 6.787316 
H 	 1.944992 	 -0.454156 	 6.684045 
H 	 1.426612 	 0.356448 	 -6.978538 
H 	 5.131851 	 1.311998 	 5.032377 
H 	 4.165511 	 2.109412 	 4.083009 
H 	 1.745516 	 4.801655 	 -7.163580 
H 	 1.397890 	 3.379297 	 -6.597519 
H 	 -3.268435 	 3.279956 	 0.171935 
H 	 -2.486968 	 4.651993 	 -0.332780 
H 	 -1.414667 	 1.881810 	 2.918545 
H 	 -1.011151 	 2.137255 	 4.447321 
H 	 -1.797627 	 -5.966672 	 3.027303 
H 	 -1.059582 	 -6.279961 	 1.792824 
H 	 -2.268821 	 -1.358360 	 5.968548 
H 	 -2.736337 	 -0.968118 	 4.544445 
H 	 -0.945060 	 7.171747 	 5.370413 
H 	 -0.604620 	 7.351905 	 3.891748 
H 	 -3.482145 	 2.817060 	 -6.455067 
H 	 -2.269283 	 2.611641 	 -5.635548 
H 	 1.780531 	 7.259047 	 -5.191216 
H 	 -2.224641 	 6.216336 	 -2.085744 
H 	 -5.411686 	 -1.093180 	 4.721309 
H 	 -5.889786 	 -2.629255 	 4.833278 
H 	 5.377096 	 -1.331412 	 6.407443 
H 	 4.169633 	 -0.852248 	 5.410375 
H 	 3.431488 	 5.803963 	 2.416673 
H 	 3.189272 	 5.787943 	 0.852502 
H 	 -0.484699 	 -2.432472 	 -3.685470 
H 	 -0.499278 	 -2.177369 	 -5.104127 
H 	 -1.529246 	 7.003061 	 -0.845218 
O 	 -6.981876 	 -2.668502 	 -5.091229 
O 	 4.852806 	 -6.371884 	 -0.219863 
O 	 -5.211695 	 -3.518186 	 1.568410 
O 	 5.875867 	 -2.681476 	 -7.099182 
O 	 -6.104123 	 -4.380240 	 4.780761 
O 	 6.881479 	 -5.058735 	 2.753812 
O 	 -3.717082 	 -6.829236 	 -6.644072 
O 	 -6.004417 	 3.533254 	 2.719062 
O 	 -3.823996 	 -5.395883 	 -1.934102 
O 	 -4.784568 	 1.190931 	 3.609610 
O 	 3.450202 	 -2.025149 	 -5.653116 
O 	 -3.343941 	 4.328517 	 3.344340 
O 	 2.320209 	 1.565737 	 3.425641 
O 	 6.959959 	 4.166898 	 4.777549 
O 	 -0.046264 	 -2.438592 	 -1.593141 
O 	 6.820844 	 -2.338812 	 2.933200 
O 	 2.810270 	 -5.475222 	 2.142707 
O 	 -5.454357 	 6.689359 	 -1.174709 
O 	 -2.646195 	 5.748487 	 -3.754544 
O 	 0.774519 	 4.925617 	 -2.574608 
O 	 -2.203323 	 -0.615128 	 -3.375841 
O 	 1.802424 	 2.225331 	 -2.482184 
O 	 7.256783 	 -5.664599 	 -5.374485 
O 	 -5.308752 	 -1.556040 	 -6.996018 
O 	 1.836874 	 -6.862707 	 6.229449 
O 	 0.689532 	 -1.942554 	 2.325184 
O 	 -1.973331 	 0.684366 	 1.668310 
O 	 0.585823 	 -0.360524 	 -4.265214 
O 	 -7.024445 	 1.018048 	 -0.576332 
O 	 6.915604 	 6.353371 	 -2.960020 
O 	 3.965760 	 -3.057206 	 1.249556 
O 	 7.321965 	 6.777652 	 3.983597 
O 	 5.859011 	 -3.941855 	 -2.932405 
O 	 -6.727620 	 3.988988 	 -0.115214 
O 	 -6.453137 	 -6.425845 	 6.840589 
O 	 4.361232 	 -5.883020 	 -5.844241 
O 	 -5.546521 	 -7.124075 	 -4.267725 
O 	 1.106870 	 -5.753956 	 -2.201620 
O 	 0.701679 	 6.088375 	 3.310975 
O 	 4.675665 	 3.178311 	 0.756253 
O 	 -0.182163 	 0.246771 	 -0.471619 
O 	 4.012382 	 5.394493 	 4.815722 
O 	 -4.698119 	 1.751673 	 6.323924 
O 	 6.466024 	 -2.724740 	 0.027113 
O 	 0.216004 	 3.864909 	 1.346978 
O 	 2.075467 	 -4.462062 	 -4.677289 
O 	 -5.252928 	 -0.763776 	 0.418508 
O 	 -4.138019 	 1.964337 	 0.681535 
O 	 -1.375022 	 7.066198 	 -5.555224 
O 	 -4.498158 	 4.446857 	 -5.725555 
O 	 -3.563476 	 -3.911288 	 -7.374256 
O 	 2.532181 	 1.286216 	 0.083334 
O 	 4.607662 	 6.508462 	 -4.240426 
O 	 2.070321 	 2.181987 	 -5.505554 
O 	 0.611207 	 -6.635356 	 0.515875 
O 	 4.491015 	 -0.942966 	 2.861934 
O 	 -6.452854 	 -5.012352 	 -1.799986 
O 	 2.770709 	 -0.963459 	 -2.754329 
O 	 2.757898 	 -3.316134 	 -1.401664 
O 	 1.702132 	 5.757288 	 -0.049058 
O 	 -0.656516 	 1.308032 	 5.982696 
O 	 1.828837 	 3.599089 	 5.044134 
O 	 5.920028 	 -0.576959 	 -1.776944 
O 	 -1.820002 	 1.967155 	 -2.064375 
O 	 -3.358100 	 -2.042480 	 -1.300894 
O 	 -0.963964 	 5.737280 	 6.406409 
O 	 -0.886579 	 -1.878107 	 6.642904 
O 	 -6.321696 	 5.458533 	 6.515091 
O 	 -6.172764 	 -1.484764 	 -2.755697 
O 	 -1.687241 	 -5.618849 	 -3.755416 
O 	 -2.710500 	 -0.401932 	 -6.184315 
O 	 6.642324 	 1.275398 	 1.774702 
O 	 -3.860528 	 6.333863 	 1.435093 
O 	 2.527138 	 -3.678064 	 4.336552 
O 	 -3.740020 	 -6.711580 	 5.101773 
O 	 -3.244839 	 -4.116008 	 4.190417 
O 	 2.892494 	 6.071018 	 -6.869860 
O 	 3.970157 	 -5.919223 	 -2.638463 
O 	 7.486774 	 1.429186 	 -7.255879 
O 	 -0.288121 	 -4.398915 	 5.819307 
O 	 -1.524222 	 3.523864 	 -4.388022 
O 	 6.503431 	 6.337017 	 0.326905 
O 	 -3.613827 	 4.672233 	 5.947490 
O 	 -2.496783 	 -2.098467 	 2.456396 
O 	 -5.380389 	 -7.018652 	 2.932614 
O 	 5.750047 	 4.852166 	 -7.071764 
O 	 2.325481 	 -0.810548 	 4.643426 
O 	 4.317927 	 3.816003 	 -4.665159 
O 	 5.642181 	 0.284071 	 -4.782402 
O 	 5.768076 	 3.581364 	 -2.316776 
O 	 0.191383 	 -5.645584 	 -6.482857 
O 	 4.405293 	 2.079980 	 -6.851303 
O 	 4.861518 	 -6.504070 	 4.257855 
O 	 -2.917509 	 -4.192550 	 0.336706 
O 	 -6.728571 	 3.086590 	 -5.008843 
O 	 5.285072 	 -5.156814 	 6.433085 
O 	 1.633685 	 -0.520465 	 -7.312052 
O 	 5.069820 	 2.120325 	 4.477504 
O 	 1.133882 	 4.041331 	 -7.283499 
O 	 -2.408816 	 3.759416 	 0.043767 
O 	 -1.137924 	 2.569210 	 3.539974 
O 	 -1.954239 	 -6.222669 	 2.095286 
O 	 -3.101282 	 -0.996746 	 5.452018 
O 	 -0.889889 	 -7.023785 	 4.685437 
O 	 -2.708373 	 2.264936 	 -6.418655 
O 	 1.137688 	 6.982899 	 -4.504319 
O 	 -6.195436 	 -1.690019 	 4.808965 
O 	 5.041136 	 -0.587965 	 5.847278 
O 	 3.889609 	 5.808885 	 1.590119 
O 	 -0.333069 	 -2.952648 	 -4.503150 
O 	 -1.734991 	 6.115896 	 -1.240787 
K 	 -6.831910 	 -6.086859 	 0.438853 
