333
conformation = 38
H 	 -6.988237 	 -3.649081 	 -4.950739 
H 	 -7.113038 	 -2.276063 	 -4.202708 
H 	 4.356729 	 -6.629993 	 0.543968 
H 	 5.537026 	 -7.105027 	 -0.306753 
H 	 -5.219757 	 -3.631899 	 2.587992 
H 	 -5.495101 	 -2.589609 	 1.473135 
H 	 5.187946 	 -2.438619 	 -6.437582 
H 	 6.734483 	 -2.691136 	 -6.542170 
H 	 -6.080964 	 -4.952246 	 5.590615 
H 	 -6.615364 	 -4.926238 	 4.109269 
H 	 6.063778 	 -5.476833 	 3.117254 
H 	 6.616969 	 -4.116437 	 2.865942 
H 	 -2.966470 	 -7.195049 	 -6.090393 
H 	 -3.495594 	 -5.848508 	 -6.647484 
H 	 -6.634872 	 3.573104 	 3.470419 
H 	 -5.070614 	 3.865655 	 2.947641 
H 	 -3.169314 	 -5.235499 	 -2.631792 
H 	 -3.560632 	 -4.647595 	 -1.271882 
H 	 -5.124671 	 1.908637 	 3.078197 
H 	 -3.857484 	 1.009218 	 3.359578 
H 	 2.856344 	 -2.736361 	 -5.338578 
H 	 2.806337 	 -1.454156 	 -6.178195 
H 	 -2.500165 	 3.797326 	 3.369573 
H 	 -3.383428 	 5.046019 	 2.644843 
H 	 2.004069 	 1.725626 	 2.494839 
H 	 2.091528 	 2.367955 	 3.997032 
H 	 6.345598 	 3.493273 	 5.174775 
H 	 -7.253229 	 4.501160 	 5.434126 
H 	 0.921927 	 -2.742246 	 -1.573551 
H 	 -0.046808 	 -1.572133 	 -1.143494 
H 	 6.020442 	 -1.741580 	 3.050474 
H 	 -7.304973 	 -1.860245 	 3.343900 
H 	 3.139481 	 -4.562800 	 1.807647 
H 	 1.989193 	 -5.785929 	 1.651781 
H 	 -4.693089 	 6.897772 	 -0.593520 
H 	 -5.596957 	 5.712507 	 -1.126778 
H 	 -2.166307 	 6.265312 	 -4.629536 
H 	 -3.572373 	 5.472298 	 -4.069269 
H 	 -0.139034 	 5.208117 	 -2.265438 
H 	 0.960618 	 5.526774 	 -3.359184 
H 	 -2.519654 	 -0.622327 	 -4.322814 
H 	 -2.307084 	 0.295059 	 -3.041800 
H 	 1.237052 	 3.008663 	 -2.608092 
H 	 1.212577 	 1.460022 	 -2.747750 
H 	 -7.221429 	 -6.341056 	 -4.719098 
H 	 6.280655 	 -5.706732 	 -5.398625 
H 	 -5.848286 	 -1.752337 	 7.098772 
H 	 -5.865472 	 -1.947185 	 -6.247813 
H 	 1.317030 	 -6.951802 	 5.399471 
H 	 1.122957 	 -6.462260 	 6.848572 
H 	 0.619866 	 -2.820801 	 2.715960 
H 	 -0.177724 	 -1.855738 	 1.888984 
H 	 -1.297565 	 0.638504 	 0.967779 
H 	 -2.036813 	 -0.263414 	 1.800025 
H 	 1.064543 	 -0.595329 	 -3.447348 
H 	 -0.333376 	 -0.237995 	 -3.939565 
H 	 7.112643 	 0.939202 	 -1.184407 
H 	 7.435873 	 0.979625 	 0.337948 
H 	 -7.169028 	 6.225114 	 -3.486499 
H 	 7.080331 	 7.003495 	 -2.242593 
H 	 3.949225 	 -2.265826 	 1.881271 
H 	 4.850242 	 -2.973919 	 0.799526 
H 	 7.061034 	 5.849219 	 4.153878 
H 	 6.593641 	 7.311515 	 4.219071 
H 	 5.897240 	 -3.922447 	 -1.951138 
H 	 5.301245 	 -4.715382 	 -3.064344 
H 	 -7.209960 	 3.276159 	 -0.569084 
H 	 -6.477291 	 3.687772 	 0.806824 
H 	 -5.609678 	 -6.713827 	 7.265441 
H 	 -6.952060 	 -6.250828 	 -7.250244 
H 	 4.231118 	 -6.821323 	 -5.392472 
H 	 3.518634 	 -5.420592 	 -5.643855 
H 	 -4.991109 	 7.484293 	 -3.558444 
H 	 -4.895606 	 -6.817095 	 -4.907791 
H 	 0.187232 	 -5.581343 	 -2.533962 
H 	 1.352905 	 -6.602238 	 -2.669243 
H 	 0.769697 	 5.380315 	 4.009104 
H 	 0.481905 	 5.502062 	 2.580171 
H 	 4.503436 	 4.069985 	 1.153381 
H 	 3.782024 	 2.865544 	 0.633633 
H 	 -0.476371 	 1.057620 	 -1.028411 
H 	 0.724223 	 0.352176 	 -0.170216 
H 	 4.222301 	 6.394748 	 4.837973 
H 	 4.857904 	 4.951129 	 5.099704 
H 	 -4.646693 	 1.656746 	 5.323742 
H 	 -4.323876 	 0.970969 	 6.790193 
H 	 6.934302 	 -2.427483 	 0.837755 
H 	 6.370542 	 -1.948303 	 -0.563204 
H 	 0.011091 	 3.544701 	 2.238506 
H 	 -0.701988 	 3.844454 	 0.964613 
H 	 2.269917 	 -4.757864 	 -3.710959 
H 	 1.237175 	 -3.925614 	 -4.531472 
H 	 -5.930390 	 -0.220708 	 -0.044294 
H 	 -4.584090 	 -1.074150 	 -0.211898 
H 	 -3.452825 	 1.288194 	 0.717032 
H 	 -4.951935 	 1.520878 	 0.345190 
H 	 0.230297 	 6.928369 	 -4.991954 
H 	 -1.309096 	 6.689953 	 -6.464627 
H 	 -5.285456 	 3.909425 	 -5.623474 
H 	 -4.695670 	 5.090881 	 -6.447734 
H 	 -2.793881 	 -3.323810 	 7.438158 
H 	 -4.320917 	 -3.333074 	 7.423969 
H 	 2.932735 	 0.430573 	 0.013387 
H 	 2.382741 	 1.660135 	 -0.813762 
H 	 4.118625 	 5.654432 	 -4.491120 
H 	 5.311363 	 6.309026 	 -3.600308 
H 	 2.731346 	 2.615786 	 -4.955880 
H 	 1.638024 	 1.581825 	 -4.904000 
H 	 0.946201 	 7.388531 	 0.275656 
H 	 0.809926 	 -6.105942 	 -0.230840 
H 	 4.837357 	 0.006978 	 2.785223 
H 	 3.694040 	 -0.864720 	 3.410078 
H 	 -6.913409 	 -4.405685 	 -2.461956 
H 	 -5.564872 	 -5.227445 	 -2.219192 
H 	 2.870391 	 -1.908785 	 -2.517560 
H 	 3.313065 	 -0.866600 	 -3.557690 
H 	 2.403400 	 -4.223760 	 -1.566369 
H 	 3.028960 	 -3.284717 	 -0.463223 
H 	 1.453652 	 5.444319 	 -0.991253 
H 	 1.240328 	 5.118796 	 0.507666 
H 	 -0.918579 	 1.766435 	 6.790694 
H 	 -1.054027 	 0.406653 	 5.916139 
H 	 2.574631 	 4.287004 	 4.995181 
H 	 1.500099 	 3.593155 	 5.983680 
H 	 6.001289 	 -0.630827 	 -2.768111 
H 	 4.978505 	 -0.654154 	 -1.612570 
H 	 -2.361589 	 2.504323 	 -1.430381 
H 	 -1.877356 	 2.490644 	 -2.917095 
H 	 -2.796716 	 -2.043018 	 -2.133475 
H 	 -2.851401 	 -2.523249 	 -0.675781 
H 	 -1.845420 	 5.318567 	 6.406838 
H 	 -0.351629 	 5.000415 	 6.481343 
H 	 -0.138471 	 -1.485399 	 7.154883 
H 	 -0.573317 	 -2.782060 	 6.368212 
H 	 -5.325131 	 5.304024 	 6.425296 
H 	 -6.418938 	 6.392152 	 6.365386 
H 	 -6.480372 	 -0.940519 	 -2.049910 
H 	 -5.460237 	 -2.015533 	 -2.370498 
H 	 -1.723601 	 -6.382039 	 -4.333175 
H 	 -1.540175 	 -4.810646 	 -4.250951 
H 	 -3.535080 	 -0.845102 	 -6.448753 
H 	 -2.811436 	 0.585949 	 -6.437956 
H 	 6.034899 	 2.054746 	 1.725732 
H 	 7.404583 	 1.618998 	 2.244175 
H 	 -3.038709 	 6.825374 	 1.485411 
H 	 -4.540581 	 6.927279 	 1.958957 
H 	 2.555908 	 -4.528435 	 3.882797 
H 	 2.170018 	 -3.944963 	 5.185268 
H 	 -2.759884 	 -6.778458 	 5.088941 
H 	 -3.920648 	 -6.586659 	 6.027133 
H 	 -2.771490 	 -4.370163 	 5.011904 
H 	 -4.105295 	 -4.513379 	 4.469113 
H 	 3.869558 	 5.865845 	 -7.027667 
H 	 2.615763 	 6.582099 	 7.263263 
H 	 3.661274 	 -6.674958 	 -3.168562 
H 	 4.296480 	 -6.279494 	 -1.780452 
H 	 -6.662944 	 1.391825 	 6.975861 
H 	 -7.345457 	 0.767032 	 -6.600925 
H 	 -0.340815 	 -4.813447 	 6.697174 
H 	 -0.378029 	 -5.184337 	 5.250024 
H 	 -2.010980 	 4.378292 	 -4.171310 
H 	 -0.633968 	 3.764347 	 -4.133633 
H 	 7.021646 	 5.574098 	 0.079068 
H 	 5.936870 	 6.148734 	 1.135409 
H 	 -3.511069 	 4.582839 	 4.911087 
H 	 -3.910988 	 3.760832 	 6.175666 
H 	 -2.459940 	 -2.785978 	 1.784992 
H 	 -2.801001 	 -2.668337 	 3.210615 
H 	 -6.242630 	 -7.216576 	 3.381677 
H 	 -4.818391 	 -6.822301 	 3.760440 
H 	 6.634622 	 5.110853 	 -7.234265 
H 	 5.730817 	 3.898667 	 -7.290743 
H 	 2.117575 	 0.115251 	 4.267089 
H 	 1.796419 	 -1.540671 	 4.199575 
H 	 4.814274 	 3.560722 	 -3.846827 
H 	 5.134248 	 4.008511 	 -5.181093 
H 	 5.218701 	 0.853816 	 -5.415965 
H 	 5.482640 	 -0.631040 	 -5.049652 
H 	 6.157872 	 4.498320 	 -2.321248 
H 	 5.145641 	 3.703030 	 -1.525547 
H 	 0.978050 	 -5.283451 	 -6.029990 
H 	 -0.160761 	 -6.383868 	 -5.929074 
H 	 3.451847 	 1.930995 	 -6.734815 
H 	 4.654945 	 1.500221 	 7.285508 
H 	 4.183765 	 -6.150081 	 3.636337 
H 	 4.902286 	 -5.937783 	 5.032383 
H 	 -2.606516 	 -4.835261 	 0.968714 
H 	 -3.719649 	 -3.752794 	 0.760547 
H 	 -6.979160 	 2.333536 	 -4.457538 
H 	 -7.076295 	 2.774929 	 -5.869478 
H 	 4.878692 	 -5.486427 	 7.244936 
H 	 5.295719 	 -4.207895 	 6.751890 
H 	 2.025488 	 -0.441619 	 6.704365 
H 	 1.400847 	 0.311340 	 -6.928916 
H 	 5.151019 	 1.302876 	 5.050159 
H 	 4.170734 	 2.107988 	 4.091980 
H 	 1.753199 	 4.800716 	 -7.141036 
H 	 1.400407 	 3.396903 	 -6.580326 
H 	 -3.256073 	 3.313803 	 0.136289 
H 	 -2.492879 	 4.704566 	 -0.340268 
H 	 -1.420585 	 1.875096 	 2.886390 
H 	 -0.988707 	 2.125402 	 4.438906 
H 	 -1.822358 	 -6.013082 	 3.046362 
H 	 -1.035014 	 -6.272310 	 1.750109 
H 	 -2.283522 	 -1.336647 	 5.958356 
H 	 -2.710868 	 -0.997408 	 4.515221 
H 	 -0.892992 	 7.180801 	 5.355257 
H 	 -0.610849 	 7.362328 	 3.889144 
H 	 -3.511238 	 2.863836 	 -6.494265 
H 	 -2.275626 	 2.672484 	 -5.632040 
H 	 1.779075 	 7.268467 	 -5.163886 
H 	 -2.244444 	 6.259694 	 -2.087593 
H 	 -5.411985 	 -1.124426 	 4.707999 
H 	 -5.886308 	 -2.632647 	 4.845667 
H 	 5.384721 	 -1.305828 	 6.418255 
H 	 4.194152 	 -0.911863 	 5.427215 
H 	 3.453974 	 5.786392 	 2.465690 
H 	 3.122629 	 5.772007 	 0.881869 
H 	 -0.476426 	 -2.399394 	 -3.643001 
H 	 -0.511741 	 -2.218583 	 -5.116448 
H 	 -1.492106 	 6.989409 	 -0.857473 
O 	 -6.981695 	 -2.674159 	 -5.082225 
O 	 4.845799 	 -6.376016 	 -0.230264 
O 	 -5.216773 	 -3.520579 	 1.590210 
O 	 5.887570 	 -2.678982 	 -7.085591 
O 	 -6.096120 	 -4.387631 	 4.778594 
O 	 6.887429 	 -5.059870 	 2.753881 
O 	 -3.706758 	 -6.816071 	 -6.648630 
O 	 -6.002568 	 3.540327 	 2.718533 
O 	 -3.819499 	 -5.396969 	 -1.931752 
O 	 -4.779665 	 1.181372 	 3.620896 
O 	 3.457176 	 -2.010624 	 -5.655474 
O 	 -3.343470 	 4.330766 	 3.351516 
O 	 2.313419 	 1.562794 	 3.432099 
O 	 6.959369 	 4.149995 	 4.790189 
O 	 -0.033698 	 -2.448091 	 -1.575076 
O 	 6.828307 	 -2.348783 	 2.935328 
O 	 2.807056 	 -5.468122 	 2.135228 
O 	 -5.457624 	 6.683380 	 -1.167957 
O 	 -2.640222 	 5.754019 	 -3.763697 
O 	 0.761094 	 4.924260 	 -2.575340 
O 	 -2.195531 	 -0.605054 	 -3.387215 
O 	 1.808524 	 2.228096 	 -2.495849 
O 	 7.250402 	 -5.664983 	 -5.378115 
O 	 -5.308732 	 -1.546768 	 -7.004507 
O 	 1.829036 	 -6.861019 	 6.243985 
O 	 0.701115 	 -1.937652 	 2.330027 
O 	 -1.972970 	 0.679642 	 1.672971 
O 	 0.596724 	 -0.358618 	 -4.263196 
O 	 -7.014520 	 1.027431 	 -0.575763 
O 	 6.919822 	 6.348262 	 -2.941557 
O 	 3.961125 	 -3.057106 	 1.252307 
O 	 7.325545 	 6.780970 	 3.983985 
O 	 5.879525 	 -3.932158 	 -2.930867 
O 	 -6.716390 	 3.991222 	 -0.105601 
O 	 -6.465119 	 -6.431045 	 6.847322 
O 	 4.361919 	 -5.885128 	 -5.843070 
O 	 -5.546530 	 -7.126392 	 -4.266226 
O 	 1.098091 	 -5.765798 	 -2.185754 
O 	 0.713559 	 6.082310 	 3.310135 
O 	 4.684783 	 3.191414 	 0.760426 
O 	 -0.192984 	 0.255731 	 -0.477609 
O 	 4.009733 	 5.405938 	 4.816393 
O 	 -4.694620 	 1.765920 	 6.322275 
O 	 6.462873 	 -2.737451 	 0.019844 
O 	 0.235735 	 3.858612 	 1.357738 
O 	 2.078063 	 -4.464432 	 -4.668978 
O 	 -5.247074 	 -0.764527 	 0.404497 
O 	 -4.140080 	 1.955200 	 0.680225 
O 	 -1.368915 	 7.066790 	 -5.554009 
O 	 -4.503920 	 4.444316 	 -5.724698 
O 	 -3.558755 	 -3.918790 	 -7.366993 
O 	 2.532054 	 1.289398 	 0.094978 
O 	 4.625657 	 6.511018 	 -4.234812 
O 	 2.066957 	 2.182824 	 -5.504339 
O 	 0.606442 	 -6.627332 	 0.508497 
O 	 4.479560 	 -0.938108 	 2.870322 
O 	 -6.443437 	 -5.024292 	 -1.800058 
O 	 2.783824 	 -0.965610 	 -2.755568 
O 	 2.763560 	 -3.317596 	 -1.396318 
O 	 1.694999 	 5.751179 	 -0.047937 
O 	 -0.661574 	 1.301431 	 5.974389 
O 	 1.832222 	 3.594580 	 5.051393 
O 	 5.928767 	 -0.566034 	 -1.780275 
O 	 -1.820332 	 1.955662 	 -2.064339 
O 	 -3.357264 	 -2.033065 	 -1.315073 
O 	 -0.968362 	 5.739654 	 6.407281 
O 	 -0.890763 	 -1.869458 	 6.646417 
O 	 -6.317594 	 5.436668 	 6.507183 
O 	 -6.176053 	 -1.480920 	 -2.760893 
O 	 -1.697862 	 -5.617623 	 -3.751432 
O 	 -2.711541 	 -0.397942 	 -6.176350 
O 	 6.656430 	 1.277534 	 1.781045 
O 	 -3.870101 	 6.337170 	 1.434505 
O 	 2.539202 	 -3.684769 	 4.336729 
O 	 -3.735062 	 -6.715404 	 5.098634 
O 	 -3.243249 	 -4.110733 	 4.191351 
O 	 2.888942 	 6.076901 	 -6.858931 
O 	 3.974140 	 -5.923011 	 -2.639702 
O 	 7.504376 	 1.423818 	 -7.256459 
O 	 -0.279510 	 -4.404456 	 5.821291 
O 	 -1.536330 	 3.520970 	 -4.388222 
O 	 6.498813 	 6.350558 	 0.345813 
O 	 -3.600083 	 4.676244 	 5.957396 
O 	 -2.498175 	 -2.092917 	 2.452463 
O 	 -5.380355 	 -7.019195 	 2.935289 
O 	 5.745076 	 4.845943 	 -7.075575 
O 	 2.319327 	 -0.823476 	 4.631907 
O 	 4.313372 	 3.815579 	 -4.677332 
O 	 5.655532 	 0.271577 	 -4.777885 
O 	 5.778533 	 3.585625 	 -2.314484 
O 	 0.191877 	 -5.638676 	 -6.475327 
O 	 4.413057 	 2.062937 	 -6.852613 
O 	 4.854452 	 -6.503010 	 4.253393 
O 	 -2.935467 	 -4.183071 	 0.348981 
O 	 -6.724249 	 3.093063 	 -5.011583 
O 	 5.293808 	 -5.163418 	 6.436011 
O 	 1.646353 	 -0.518819 	 -7.301263 
O 	 5.065931 	 2.117907 	 4.471621 
O 	 1.132798 	 4.052516 	 -7.283043 
O 	 -2.402413 	 3.759588 	 0.048448 
O 	 -1.147435 	 2.571423 	 3.540768 
O 	 -1.948616 	 -6.223065 	 2.092197 
O 	 -3.099388 	 -0.993472 	 5.438443 
O 	 -0.886627 	 -7.013256 	 4.680121 
O 	 -2.715171 	 2.270717 	 -6.408039 
O 	 1.132935 	 6.978071 	 -4.484799 
O 	 -6.199946 	 -1.685019 	 4.810280 
O 	 5.041989 	 -0.576060 	 5.836395 
O 	 3.897180 	 5.808050 	 1.590047 
O 	 -0.337637 	 -2.953992 	 -4.499761 
O 	 -1.721374 	 6.109567 	 -1.250226 
K 	 -6.827285 	 -6.084244 	 0.438942 
