333
conformation = 22
H 	 -7.255669 	 -3.753710 	 -4.764908 
H 	 -7.129199 	 -2.302617 	 -4.143456 
H 	 4.108745 	 -6.564876 	 0.589986 
H 	 5.260991 	 -7.302486 	 -0.108335 
H 	 -5.185580 	 -3.639526 	 2.751684 
H 	 -5.651841 	 -2.726951 	 1.551147 
H 	 5.072600 	 -2.666754 	 -6.249996 
H 	 6.644168 	 -2.608729 	 -6.414467 
H 	 -6.281833 	 -5.101864 	 5.641556 
H 	 -6.870340 	 -4.895334 	 4.207998 
H 	 6.064929 	 -5.697829 	 3.354809 
H 	 6.660354 	 -4.183664 	 2.966479 
H 	 -3.045182 	 7.542084 	 -6.178549 
H 	 -3.515356 	 -5.891258 	 -6.598411 
H 	 -6.717653 	 3.508797 	 3.585713 
H 	 -5.362005 	 4.000254 	 3.131658 
H 	 -3.290143 	 -5.427020 	 -2.593890 
H 	 -3.823807 	 -4.682067 	 -1.216649 
H 	 -5.201641 	 1.674394 	 3.099809 
H 	 -3.990155 	 0.908312 	 3.367844 
H 	 2.902085 	 -2.762316 	 -5.120086 
H 	 2.684407 	 -1.435335 	 -6.041742 
H 	 -2.674782 	 3.653966 	 3.435027 
H 	 -3.406295 	 4.826179 	 2.670792 
H 	 1.848169 	 1.701482 	 2.626850 
H 	 1.849691 	 2.235020 	 4.139640 
H 	 6.236193 	 3.273727 	 5.211783 
H 	 7.298773 	 4.323285 	 5.742092 
H 	 0.847164 	 -2.798851 	 -1.318785 
H 	 -0.200175 	 -1.755744 	 -0.868835 
H 	 5.902681 	 -1.889313 	 2.970650 
H 	 7.346127 	 -2.076037 	 3.702797 
H 	 2.838949 	 -4.604393 	 1.792930 
H 	 1.950044 	 -5.925475 	 1.688745 
H 	 -4.873258 	 6.530422 	 -0.379508 
H 	 -5.955039 	 5.647576 	 -0.871257 
H 	 -2.288940 	 6.157983 	 -4.552568 
H 	 -3.664341 	 5.312379 	 -4.080562 
H 	 -0.374913 	 5.053344 	 -2.220009 
H 	 0.751790 	 5.525491 	 -3.243893 
H 	 -2.598845 	 -0.505135 	 -4.297111 
H 	 -2.243802 	 0.236499 	 -2.974660 
H 	 1.027144 	 2.881809 	 -2.475819 
H 	 1.191271 	 1.257138 	 -2.678745 
H 	 7.411554 	 -6.263216 	 -4.489300 
H 	 6.105802 	 -5.806604 	 -5.223968 
H 	 -5.882852 	 -1.949379 	 7.099548 
H 	 -5.926615 	 -2.012205 	 -6.165831 
H 	 1.348345 	 -6.802961 	 5.499274 
H 	 0.945570 	 -6.545618 	 7.058610 
H 	 0.689189 	 -2.894927 	 2.727298 
H 	 -0.271097 	 -1.920714 	 2.009479 
H 	 -1.515644 	 0.606224 	 1.019369 
H 	 -2.307215 	 -0.346103 	 1.996479 
H 	 0.901162 	 -0.813759 	 -3.396705 
H 	 -0.455396 	 -0.281989 	 -3.995926 
H 	 7.141968 	 0.812235 	 -1.193124 
H 	 7.161064 	 1.122565 	 0.323839 
H 	 -7.377597 	 6.349688 	 -3.392435 
H 	 7.080352 	 6.955102 	 -2.134083 
H 	 3.842163 	 -2.300196 	 1.921328 
H 	 4.661785 	 -3.208610 	 0.927172 
H 	 6.977785 	 5.746243 	 3.953251 
H 	 6.352285 	 7.112410 	 4.145034 
H 	 5.666377 	 -3.798186 	 -1.894853 
H 	 5.287413 	 -4.745235 	 -3.053745 
H 	 -7.157017 	 3.081009 	 -0.345348 
H 	 -6.590652 	 3.691384 	 0.929170 
H 	 -5.854963 	 -6.751725 	 7.465800 
H 	 -7.323435 	 -6.416153 	 -7.258627 
H 	 4.060265 	 -6.962881 	 -5.519278 
H 	 3.415368 	 -5.491183 	 -5.611193 
H 	 -5.283855 	 7.511592 	 -3.294592 
H 	 -5.030778 	 -6.863386 	 -4.780474 
H 	 0.062245 	 -5.811222 	 -2.557692 
H 	 1.358900 	 -6.652161 	 -2.487462 
H 	 0.299495 	 5.613098 	 4.204016 
H 	 0.271341 	 5.362210 	 2.694352 
H 	 4.628484 	 4.148434 	 0.957250 
H 	 3.645265 	 2.924003 	 0.806257 
H 	 -0.692527 	 1.014959 	 -0.999977 
H 	 0.503837 	 0.416714 	 -0.210547 
H 	 4.039849 	 6.385627 	 5.032310 
H 	 4.627426 	 4.950239 	 5.236702 
H 	 -4.744158 	 1.719723 	 5.421339 
H 	 -4.458070 	 0.858496 	 6.515742 
H 	 6.754561 	 -2.415041 	 0.827259 
H 	 6.184193 	 -2.177757 	 -0.618175 
H 	 0.125286 	 3.326849 	 2.367042 
H 	 -0.768871 	 3.732495 	 1.136436 
H 	 2.179030 	 -4.651633 	 -3.579885 
H 	 1.065187 	 -4.016121 	 -4.603519 
H 	 -6.154190 	 -0.341971 	 0.217502 
H 	 -5.012774 	 -1.010808 	 -0.414966 
H 	 -3.610298 	 1.218035 	 0.934283 
H 	 -5.034991 	 1.257892 	 0.405253 
H 	 0.061565 	 6.870870 	 -4.836008 
H 	 -1.354476 	 6.530948 	 -6.333175 
H 	 -5.259710 	 3.638844 	 -5.487177 
H 	 -5.138315 	 4.922187 	 -6.278282 
H 	 -2.966822 	 -3.382487 	 -7.352172 
H 	 -4.433543 	 -3.476749 	 -7.121498 
H 	 2.744245 	 0.358007 	 -0.150641 
H 	 2.038928 	 1.625547 	 -0.608827 
H 	 3.974851 	 5.651989 	 -4.281476 
H 	 5.238574 	 6.136562 	 -3.526634 
H 	 2.562614 	 2.561636 	 -4.917742 
H 	 1.363206 	 1.557942 	 -4.811729 
H 	 0.623656 	 7.296490 	 0.335440 
H 	 0.639285 	 -6.234284 	 -0.255727 
H 	 4.835662 	 -0.156447 	 3.118599 
H 	 3.571891 	 -0.903040 	 3.607031 
H 	 -7.009006 	 -4.558736 	 -2.361865 
H 	 -5.594873 	 -5.353938 	 -2.042596 
H 	 2.670607 	 -2.011291 	 -2.595334 
H 	 3.149859 	 -0.873014 	 -3.506908 
H 	 2.153971 	 -4.270541 	 -1.358658 
H 	 2.899566 	 -3.350510 	 -0.362177 
H 	 1.436985 	 5.451093 	 -0.954510 
H 	 1.017193 	 4.916057 	 0.432065 
H 	 -1.221396 	 1.537036 	 6.817798 
H 	 -1.029718 	 0.237116 	 6.185727 
H 	 2.414315 	 4.237366 	 5.153960 
H 	 1.410984 	 3.511560 	 6.077466 
H 	 6.032969 	 -0.953449 	 -2.643627 
H 	 4.853990 	 -0.728623 	 -1.710205 
H 	 -2.303692 	 2.445688 	 -1.332184 
H 	 -1.739669 	 2.395651 	 -2.777543 
H 	 -2.960459 	 -1.742241 	 -2.066926 
H 	 -2.929913 	 -2.576088 	 -0.692042 
H 	 -1.945273 	 5.145229 	 6.317834 
H 	 -0.411895 	 5.070059 	 6.603590 
H 	 -0.194140 	 -1.559943 	 7.136718 
H 	 -0.747030 	 -2.676955 	 6.153976 
H 	 -5.439869 	 5.156162 	 6.414997 
H 	 -6.668093 	 6.180472 	 6.354581 
H 	 -6.630407 	 -1.054889 	 -1.944499 
H 	 -5.730410 	 -2.216699 	 -2.309844 
H 	 -2.133765 	 -6.338424 	 -4.307499 
H 	 -1.624514 	 -4.954264 	 -4.177651 
H 	 -3.678906 	 -0.963704 	 -6.390663 
H 	 -3.024726 	 0.509721 	 -6.273325 
H 	 5.851209 	 1.893237 	 1.835781 
H 	 7.268272 	 1.574520 	 2.400905 
H 	 -3.392687 	 6.956987 	 1.511564 
H 	 -4.775614 	 6.773623 	 2.082103 
H 	 2.484683 	 -4.610871 	 3.898344 
H 	 2.184155 	 -4.027022 	 5.298948 
H 	 -2.910167 	 -6.953684 	 5.170700 
H 	 -4.119411 	 -6.736175 	 6.120626 
H 	 -2.773769 	 -4.463877 	 4.988553 
H 	 -4.177520 	 -4.756709 	 4.277554 
H 	 3.690794 	 5.670538 	 -6.843268 
H 	 2.585099 	 6.665105 	 7.472018 
H 	 3.685772 	 -6.934009 	 -3.002359 
H 	 4.128183 	 -6.275202 	 -1.643624 
H 	 -6.747210 	 1.274644 	 7.069071 
H 	 -7.189362 	 0.588762 	 -6.677177 
H 	 -0.458471 	 -4.708771 	 6.889971 
H 	 -0.345758 	 -5.415615 	 5.501458 
H 	 -2.140522 	 4.297614 	 -4.065779 
H 	 -0.765998 	 3.579229 	 -4.246260 
H 	 6.827600 	 5.510998 	 0.309502 
H 	 5.929418 	 6.082611 	 1.362829 
H 	 -3.772880 	 4.529463 	 5.062362 
H 	 -3.948893 	 3.740225 	 6.522670 
H 	 -2.728626 	 -2.918475 	 1.973465 
H 	 -2.549207 	 -2.488265 	 3.436252 
H 	 -6.385853 	 7.283405 	 3.144876 
H 	 -5.044452 	 -7.187953 	 3.890900 
H 	 6.498103 	 4.982579 	 -6.830705 
H 	 5.585720 	 3.775742 	 -7.185355 
H 	 1.793884 	 -0.131794 	 4.189862 
H 	 1.620055 	 -1.618961 	 4.192521 
H 	 4.587531 	 3.621333 	 -3.757509 
H 	 4.695845 	 3.904057 	 -5.402842 
H 	 5.013599 	 0.533698 	 -5.327208 
H 	 5.248581 	 -0.804962 	 -4.758585 
H 	 6.253735 	 4.308935 	 -2.336203 
H 	 5.221576 	 3.563976 	 -1.317523 
H 	 0.847044 	 -5.500176 	 -5.897769 
H 	 -0.491365 	 -6.268503 	 -5.779887 
H 	 3.425552 	 1.578056 	 -6.674327 
H 	 4.620937 	 1.562001 	 7.202498 
H 	 3.933353 	 -6.302111 	 3.735105 
H 	 4.699484 	 -6.030329 	 5.075781 
H 	 -2.787881 	 -5.008546 	 0.895904 
H 	 -4.037888 	 -4.168487 	 0.986763 
H 	 -6.913826 	 2.244095 	 -4.334544 
H 	 -7.294505 	 2.702833 	 -5.799952 
H 	 4.810474 	 -5.575113 	 7.404298 
H 	 5.321696 	 -4.312895 	 6.493952 
H 	 2.058481 	 -0.271000 	 6.951577 
H 	 1.239836 	 0.198357 	 -6.769288 
H 	 5.031288 	 1.140121 	 5.032842 
H 	 3.996629 	 1.911224 	 4.224972 
H 	 1.647331 	 4.712721 	 -6.973313 
H 	 1.115227 	 3.317482 	 -6.498478 
H 	 -3.388593 	 3.358053 	 0.332272 
H 	 -2.620200 	 4.660366 	 -0.198853 
H 	 -1.566838 	 1.738288 	 2.999142 
H 	 -1.043967 	 2.010780 	 4.435453 
H 	 -2.083355 	 -6.254405 	 3.107325 
H 	 -1.124894 	 -6.365566 	 1.780407 
H 	 -2.547911 	 -1.338549 	 6.096000 
H 	 -2.861480 	 -1.182861 	 4.535870 
H 	 -0.877481 	 7.175309 	 5.436303 
H 	 -0.671707 	 7.382198 	 3.943814 
H 	 -3.604252 	 2.857892 	 -6.637540 
H 	 -2.375826 	 2.756623 	 -5.633382 
H 	 1.709101 	 6.946236 	 -4.915033 
H 	 -2.380950 	 6.279462 	 -1.984866 
H 	 -5.509675 	 -1.317366 	 4.737994 
H 	 -6.166234 	 -2.735380 	 4.962247 
H 	 5.408732 	 -1.110501 	 6.562690 
H 	 4.218418 	 -1.228289 	 5.568082 
H 	 3.621150 	 5.599680 	 2.677637 
H 	 2.862272 	 5.725422 	 1.201215 
H 	 -0.493112 	 -2.565986 	 -3.481237 
H 	 -0.661686 	 -2.481615 	 -5.124468 
H 	 -1.466694 	 6.830765 	 -0.845854 
O 	 -7.118669 	 -2.792080 	 -4.987008 
O 	 4.688513 	 -6.499109 	 -0.182107 
O 	 -5.400348 	 -3.629242 	 1.796128 
O 	 5.800499 	 -2.741023 	 -6.928047 
O 	 -6.182016 	 -4.522828 	 4.847947 
O 	 6.750345 	 -5.159102 	 2.849016 
O 	 -3.804421 	 -6.828732 	 -6.575746 
O 	 -6.141791 	 3.478723 	 2.788018 
O 	 -3.926632 	 -5.472578 	 -1.843876 
O 	 -4.888055 	 1.036480 	 3.769968 
O 	 3.344565 	 -2.015808 	 -5.578414 
O 	 -3.482675 	 4.255461 	 3.474161 
O 	 2.139596 	 1.473253 	 3.548854 
O 	 6.825759 	 3.981527 	 4.930681 
O 	 -0.120717 	 -2.589825 	 -1.404826 
O 	 6.723690 	 -2.477771 	 3.011796 
O 	 2.671648 	 -5.528140 	 2.207562 
O 	 -5.616611 	 6.570292 	 -1.058688 
O 	 -2.776223 	 5.696604 	 -3.745332 
O 	 0.537071 	 4.836469 	 -2.513837 
O 	 -2.277184 	 -0.652215 	 -3.368663 
O 	 1.676912 	 2.138471 	 -2.485497 
O 	 7.093677 	 -5.751899 	 -5.323249 
O 	 -5.468785 	 -1.604732 	 -6.966120 
O 	 1.639598 	 -6.936944 	 6.410996 
O 	 0.606345 	 -2.003727 	 2.426763 
O 	 -2.106716 	 0.561251 	 1.774851 
O 	 0.497724 	 -0.398541 	 -4.164426 
O 	 -7.122523 	 0.998951 	 -0.474619 
O 	 6.801692 	 6.225983 	 -2.746486 
O 	 3.769846 	 -3.155072 	 1.343674 
O 	 7.198635 	 6.702620 	 4.066984 
O 	 5.844105 	 -3.970147 	 -2.828685 
O 	 -6.815258 	 3.929546 	 0.016943 
O 	 -6.661472 	 -6.556667 	 6.968679 
O 	 4.217477 	 -5.998339 	 -5.753260 
O 	 -5.676847 	 -7.232679 	 -4.168158 
O 	 0.895817 	 -5.908720 	 -2.017382 
O 	 0.624706 	 5.956537 	 3.391355 
O 	 4.585040 	 3.189003 	 0.864017 
O 	 -0.409699 	 0.210628 	 -0.424742 
O 	 3.845642 	 5.393303 	 4.896930 
O 	 -4.834285 	 1.773879 	 6.417456 
O 	 6.304394 	 -2.880564 	 0.070875 
O 	 0.169809 	 3.742780 	 1.502651 
O 	 1.925884 	 -4.537941 	 -4.519309 
O 	 -5.366294 	 -0.872192 	 0.444778 
O 	 -4.313676 	 1.850914 	 0.751777 
O 	 -1.481991 	 6.979738 	 -5.464766 
O 	 -4.659254 	 4.351623 	 -5.650371 
O 	 -3.667364 	 -4.055007 	 -7.247464 
O 	 2.378941 	 1.196807 	 0.222412 
O 	 4.534473 	 6.467595 	 -4.137401 
O 	 1.891725 	 2.092339 	 -5.404602 
O 	 0.434117 	 -6.674942 	 0.565309 
O 	 4.290696 	 -0.975647 	 2.980572 
O 	 -6.542896 	 -5.163878 	 -1.749711 
O 	 2.718425 	 -1.050949 	 -2.664239 
O 	 2.631241 	 -3.422599 	 -1.288564 
O 	 1.510603 	 5.633583 	 0.036019 
O 	 -0.820159 	 1.175713 	 6.017319 
O 	 1.707521 	 3.495186 	 5.142196 
O 	 5.809295 	 -0.609292 	 -1.735706 
O 	 -1.963383 	 1.805456 	 -1.997254 
O 	 -3.506461 	 -2.076210 	 -1.306310 
O 	 -1.143018 	 5.677965 	 6.494463 
O 	 -1.028579 	 -1.930551 	 6.764764 
O 	 -6.418283 	 5.256108 	 6.564084 
O 	 -6.333575 	 -1.550804 	 -2.705440 
O 	 -1.896159 	 -5.693572 	 -3.630359 
O 	 -2.874787 	 -0.475583 	 -6.057809 
O 	 6.565919 	 1.189538 	 1.891830 
O 	 -4.061136 	 6.262756 	 1.504155 
O 	 2.454154 	 -3.809607 	 4.427023 
O 	 -3.861718 	 -6.823788 	 5.183550 
O 	 -3.379025 	 -4.179038 	 4.290120 
O 	 2.746408 	 6.025885 	 -6.721191 
O 	 3.836039 	 -6.042091 	 -2.575215 
O 	 7.419958 	 1.347534 	 -7.186612 
O 	 -0.382261 	 -4.527967 	 5.926797 
O 	 -1.724401 	 3.412017 	 -4.284569 
O 	 6.339313 	 6.338077 	 0.523865 
O 	 -3.685899 	 4.597354 	 6.096053 
O 	 -2.638953 	 -2.156067 	 2.536010 
O 	 -5.548056 	 -7.098807 	 3.042563 
O 	 5.569318 	 4.729013 	 -7.010933 
O 	 2.154333 	 -0.963503 	 4.673038 
O 	 4.141077 	 3.719171 	 -4.641598 
O 	 5.581864 	 0.109737 	 -4.669255 
O 	 5.681559 	 3.528829 	 -2.205138 
O 	 0.046647 	 -5.690490 	 -6.377620 
O 	 4.326677 	 1.864785 	 -6.803787 
O 	 4.671487 	 -6.605089 	 4.302840 
O 	 -3.153635 	 -4.211966 	 0.503910 
O 	 -6.875861 	 3.017514 	 -4.953588 
O 	 5.186725 	 -5.271602 	 6.555322 
O 	 1.572208 	 -0.629998 	 -7.157746 
O 	 4.912052 	 2.012716 	 4.540614 
O 	 0.982707 	 4.022977 	 -7.192874 
O 	 -2.503540 	 3.694116 	 0.143871 
O 	 -1.341355 	 2.501711 	 3.615868 
O 	 -2.056766 	 -6.314493 	 2.141071 
O 	 -3.233526 	 -1.053880 	 5.435700 
O 	 -1.007410 	 -7.055612 	 4.745260 
O 	 -2.903028 	 2.224687 	 -6.280968 
O 	 0.957224 	 6.870434 	 -4.298288 
O 	 -6.356374 	 -1.744203 	 4.908894 
O 	 4.891401 	 -0.608183 	 5.875830 
O 	 3.773733 	 5.715387 	 1.683957 
O 	 -0.518782 	 -3.059786 	 -4.380784 
O 	 -1.794049 	 6.000077 	 -1.221003 
K 	 -6.946215 	 -6.154578 	 0.532825 
