333
conformation = 4
H 	 7.282294 	 -3.649355 	 -4.790236 
H 	 -6.889834 	 -2.299219 	 -4.126145 
H 	 3.961699 	 -6.240639 	 0.563402 
H 	 4.826199 	 7.496307 	 0.063838 
H 	 -5.183541 	 -3.427964 	 2.829254 
H 	 -5.485140 	 -2.737465 	 1.517123 
H 	 4.935016 	 -2.636859 	 -6.350024 
H 	 6.457230 	 -2.530939 	 -6.125073 
H 	 -6.403309 	 -5.116960 	 5.627592 
H 	 -6.865665 	 -4.709307 	 4.168157 
H 	 6.022799 	 -5.462144 	 3.537653 
H 	 6.522066 	 -4.163966 	 2.923999 
H 	 -2.949864 	 -7.198696 	 -6.420805 
H 	 -3.581187 	 -5.746081 	 -6.689137 
H 	 -6.856916 	 3.792989 	 3.531277 
H 	 -5.342854 	 3.874887 	 3.058939 
H 	 -3.178764 	 -5.413963 	 -2.463935 
H 	 -3.617091 	 -4.776136 	 -1.205754 
H 	 -5.321273 	 1.641040 	 3.202835 
H 	 -4.041431 	 0.760500 	 3.481830 
H 	 2.934298 	 -2.654707 	 -5.114789 
H 	 2.611821 	 -1.509376 	 -6.058402 
H 	 -2.869339 	 3.547727 	 3.491548 
H 	 -3.398811 	 4.919492 	 2.772592 
H 	 1.910211 	 1.689312 	 2.687111 
H 	 1.667146 	 2.294772 	 4.195860 
H 	 6.188678 	 3.165002 	 4.941485 
H 	 7.203353 	 4.116071 	 5.866128 
H 	 0.810701 	 -2.687302 	 -1.027063 
H 	 -0.443032 	 -1.719849 	 -0.938759 
H 	 5.794454 	 -2.144429 	 3.119313 
H 	 7.142533 	 -2.115078 	 3.847105 
H 	 2.938011 	 -4.608857 	 1.804135 
H 	 1.904222 	 -5.877305 	 1.767182 
H 	 -4.974119 	 6.452525 	 -0.282871 
H 	 -6.298099 	 5.814837 	 -0.869731 
H 	 -2.290220 	 6.333054 	 -4.420749 
H 	 -3.675424 	 5.651967 	 -4.284954 
H 	 -0.424988 	 5.226367 	 -2.098609 
H 	 0.656350 	 5.666910 	 -3.162798 
H 	 -2.735959 	 -0.425111 	 -4.268786 
H 	 -2.412445 	 0.219692 	 -2.836554 
H 	 0.954659 	 2.925740 	 -2.491986 
H 	 1.109896 	 1.384738 	 -2.736982 
H 	 -7.408581 	 -6.070072 	 -4.593851 
H 	 6.010968 	 -5.678209 	 -5.199727 
H 	 -5.936768 	 -1.694591 	 7.033044 
H 	 -6.126822 	 -2.015442 	 -6.369581 
H 	 1.361655 	 -6.570124 	 5.655482 
H 	 0.842886 	 -6.488259 	 7.128932 
H 	 0.828998 	 -2.888484 	 2.582271 
H 	 -0.347912 	 -2.005775 	 2.338256 
H 	 -1.563201 	 0.384821 	 1.076632 
H 	 -2.413722 	 -0.355747 	 2.088505 
H 	 0.965093 	 -0.827355 	 -3.492447 
H 	 -0.444988 	 -0.438717 	 -3.909744 
H 	 7.173144 	 0.828577 	 -1.159675 
H 	 7.094040 	 1.227909 	 0.349041 
H 	 7.346463 	 6.441600 	 -3.377041 
H 	 7.067446 	 6.918166 	 -1.932613 
H 	 3.698904 	 -2.230886 	 1.819657 
H 	 4.556656 	 -3.368335 	 1.080391 
H 	 6.981804 	 5.775150 	 3.958086 
H 	 6.239733 	 7.208618 	 3.964023 
H 	 5.566975 	 -3.644437 	 -1.896222 
H 	 5.268479 	 -4.580658 	 -2.997816 
H 	 -6.766599 	 3.123857 	 -0.243011 
H 	 -6.472019 	 3.926820 	 0.972208 
H 	 -6.079365 	 -6.579843 	 -7.173998 
H 	 7.336176 	 -6.207392 	 7.555520 
H 	 4.017708 	 -6.853101 	 -5.508431 
H 	 3.412802 	 -5.542075 	 -5.313605 
H 	 -5.342711 	 -7.035383 	 -3.183244 
H 	 -4.970534 	 -6.991108 	 -4.703136 
H 	 -0.038440 	 -5.927833 	 -2.472620 
H 	 1.455321 	 -6.418898 	 -2.355862 
H 	 0.189053 	 5.661513 	 4.247223 
H 	 0.293860 	 5.297926 	 2.744586 
H 	 4.395562 	 4.302207 	 1.045555 
H 	 3.679677 	 2.977380 	 0.930637 
H 	 -1.000922 	 0.794013 	 -1.172839 
H 	 0.272782 	 0.767222 	 -0.106455 
H 	 3.892747 	 6.493647 	 5.014447 
H 	 4.595497 	 5.142491 	 5.217052 
H 	 -5.079772 	 1.995584 	 5.514781 
H 	 -4.438448 	 1.080094 	 6.550934 
H 	 6.676712 	 -2.498385 	 0.848263 
H 	 6.159192 	 -2.103440 	 -0.533557 
H 	 0.127104 	 3.127993 	 2.393930 
H 	 -0.735611 	 3.634495 	 1.243577 
H 	 2.119632 	 -4.680883 	 -3.564108 
H 	 1.031692 	 -3.913090 	 -4.236199 
H 	 -6.251629 	 -0.400375 	 0.346847 
H 	 -4.915821 	 -1.048076 	 -0.386462 
H 	 -3.741730 	 1.381718 	 1.287771 
H 	 -4.953464 	 1.285315 	 0.255419 
H 	 -0.022470 	 6.961532 	 -4.678406 
H 	 -1.306481 	 6.455085 	 -6.195949 
H 	 -5.282548 	 3.831404 	 -5.069416 
H 	 -5.446832 	 4.911153 	 -6.017234 
H 	 -2.934398 	 -3.420737 	 -7.291933 
H 	 -4.392097 	 -3.527067 	 -6.739391 
H 	 2.856776 	 0.569932 	 -0.235629 
H 	 2.182466 	 1.883127 	 -0.457482 
H 	 4.101204 	 5.717827 	 -4.179157 
H 	 5.382852 	 6.487124 	 -3.619611 
H 	 2.463105 	 2.612778 	 -4.875720 
H 	 1.413876 	 1.606942 	 -4.612067 
H 	 0.638453 	 7.376402 	 0.599199 
H 	 0.316670 	 -6.373864 	 -0.425592 
H 	 4.784830 	 -0.136673 	 3.172256 
H 	 3.539062 	 -0.918656 	 3.744222 
H 	 -7.085764 	 -4.664565 	 -2.357370 
H 	 -5.602999 	 -5.046673 	 -2.048242 
H 	 2.803208 	 -1.943921 	 -2.420099 
H 	 3.012523 	 -0.879435 	 -3.568358 
H 	 2.316090 	 -4.338265 	 -1.184521 
H 	 2.913047 	 -3.178169 	 -0.340249 
H 	 1.459791 	 5.517472 	 -0.895034 
H 	 0.946906 	 4.838508 	 0.410368 
H 	 -1.590637 	 1.544680 	 6.614492 
H 	 -0.988984 	 0.221097 	 6.126378 
H 	 2.343153 	 4.247543 	 5.043468 
H 	 1.430650 	 3.504362 	 6.133324 
H 	 6.119421 	 -0.878663 	 -2.586045 
H 	 4.821713 	 -0.439438 	 -2.045737 
H 	 -2.179172 	 2.387903 	 -1.240071 
H 	 -1.765691 	 2.387526 	 -2.754405 
H 	 -3.095410 	 -1.309386 	 -1.870416 
H 	 -2.901744 	 -2.557247 	 -0.942741 
H 	 -2.004361 	 5.199870 	 6.281574 
H 	 -0.572392 	 5.207747 	 7.024974 
H 	 -0.174641 	 -1.472225 	 7.046587 
H 	 -0.819038 	 -2.315807 	 6.018014 
H 	 -5.533554 	 5.176396 	 6.204899 
H 	 -6.710311 	 6.120186 	 6.280464 
H 	 -6.742774 	 -1.053465 	 -1.845954 
H 	 -5.772496 	 -2.154476 	 -2.345689 
H 	 -2.187669 	 -6.289968 	 -4.284389 
H 	 -1.635592 	 -4.792437 	 -3.971675 
H 	 -3.832339 	 -0.779227 	 -6.336381 
H 	 -3.141748 	 0.552967 	 -5.990218 
H 	 5.779401 	 1.877617 	 1.851094 
H 	 7.181140 	 1.679932 	 2.627168 
H 	 -3.484077 	 7.068190 	 1.448250 
H 	 -4.807797 	 6.703500 	 2.218325 
H 	 2.372618 	 -4.557250 	 3.853307 
H 	 2.137570 	 -4.186589 	 5.320749 
H 	 -3.005556 	 -7.125400 	 5.080557 
H 	 -4.016955 	 -6.883454 	 6.232258 
H 	 -2.817069 	 -4.435133 	 5.034496 
H 	 -4.108267 	 -4.789904 	 4.396346 
H 	 3.567757 	 5.734352 	 -6.725113 
H 	 2.639989 	 6.821396 	 -7.333623 
H 	 4.245624 	 -6.838691 	 -2.970720 
H 	 3.981085 	 -6.092628 	 -1.599219 
H 	 -6.707629 	 1.724809 	 7.210384 
H 	 -7.292802 	 0.499720 	 -6.735941 
H 	 -0.344112 	 -4.639947 	 6.995509 
H 	 -0.554727 	 -5.413770 	 5.574250 
H 	 -2.127911 	 4.312357 	 -3.929133 
H 	 -0.880479 	 3.639459 	 -4.562886 
H 	 6.757457 	 5.598836 	 0.427589 
H 	 5.746051 	 6.253761 	 1.432300 
H 	 -3.689898 	 4.540501 	 5.189309 
H 	 -3.719763 	 3.713781 	 6.472028 
H 	 -2.983290 	 -2.747990 	 1.970731 
H 	 -2.429269 	 -2.655368 	 3.309035 
H 	 -6.467810 	 7.339411 	 3.340292 
H 	 -5.147432 	 -7.131547 	 3.885780 
H 	 6.352115 	 4.936141 	 -6.514233 
H 	 5.505118 	 3.777784 	 -7.231638 
H 	 1.783502 	 -0.112548 	 4.228405 
H 	 1.643809 	 -1.732036 	 4.286687 
H 	 4.708221 	 3.645328 	 -3.961934 
H 	 4.516654 	 3.823738 	 -5.457862 
H 	 5.180640 	 0.643812 	 -5.303513 
H 	 5.124663 	 -0.819566 	 -4.709197 
H 	 6.370040 	 4.285754 	 -2.175930 
H 	 5.523076 	 3.539194 	 -1.210582 
H 	 0.640243 	 -5.649375 	 -5.598064 
H 	 -0.685697 	 -6.280341 	 -6.102495 
H 	 3.413954 	 1.588690 	 -6.713844 
H 	 4.534264 	 1.430627 	 7.171195 
H 	 3.832244 	 -6.321719 	 3.716890 
H 	 4.576666 	 -6.051279 	 5.102121 
H 	 -2.777781 	 -4.941848 	 0.802918 
H 	 -4.156237 	 -4.190277 	 1.005236 
H 	 -6.841658 	 2.395326 	 -4.244271 
H 	 -7.201809 	 2.427457 	 -5.738554 
H 	 4.814055 	 -5.307136 	 7.537657 
H 	 5.534366 	 -4.370283 	 6.668198 
H 	 1.996530 	 -0.301459 	 6.967489 
H 	 1.222944 	 0.158300 	 -6.492980 
H 	 5.038100 	 1.104005 	 4.861090 
H 	 3.924520 	 2.012214 	 4.220690 
H 	 1.591132 	 4.779902 	 -6.833065 
H 	 0.974594 	 3.393079 	 -6.527145 
H 	 -3.341002 	 3.455796 	 0.606122 
H 	 -2.583966 	 4.680084 	 -0.110191 
H 	 -1.665806 	 1.756741 	 3.053168 
H 	 -1.194916 	 2.193290 	 4.485457 
H 	 -2.169120 	 -6.081936 	 3.039009 
H 	 -1.092947 	 -6.397883 	 1.891522 
H 	 -2.665871 	 -1.195656 	 6.009022 
H 	 -2.875385 	 -1.084977 	 4.559314 
H 	 -1.022989 	 7.191366 	 5.432674 
H 	 -0.473552 	 7.528474 	 4.071446 
H 	 -3.661618 	 2.907168 	 -6.578519 
H 	 -2.546474 	 2.856384 	 -5.513231 
H 	 1.435927 	 6.426561 	 -4.785057 
H 	 -2.326017 	 6.230770 	 -2.072270 
H 	 -5.527357 	 -1.374904 	 4.697889 
H 	 -6.287731 	 -2.668712 	 5.036114 
H 	 5.459549 	 -0.772497 	 6.570570 
H 	 4.392880 	 -1.333805 	 5.704840 
H 	 3.677680 	 5.523870 	 2.727927 
H 	 2.830031 	 5.847243 	 1.472714 
H 	 -0.612158 	 -2.611606 	 -3.456642 
H 	 -0.776792 	 -2.366757 	 -4.959294 
H 	 -1.413808 	 6.869564 	 -0.907608 
O 	 -7.150554 	 -2.789267 	 -4.952784 
O 	 4.633599 	 -6.496276 	 -0.145129 
O 	 -5.523282 	 -3.607892 	 1.965990 
O 	 5.804996 	 -2.645215 	 -6.840904 
O 	 -6.187686 	 -4.536960 	 4.871630 
O 	 6.716428 	 -5.137599 	 2.902454 
O 	 -3.824420 	 -6.689313 	 -6.549035 
O 	 -6.221705 	 3.560718 	 2.831466 
O 	 -3.964479 	 -5.424502 	 -1.814839 
O 	 -4.887462 	 1.029532 	 3.846062 
O 	 3.352848 	 -1.873866 	 -5.513793 
O 	 -3.526710 	 4.326844 	 3.530402 
O 	 2.048353 	 1.528890 	 3.612058 
O 	 6.776140 	 3.933739 	 5.012266 
O 	 -0.112732 	 -2.598079 	 -1.279586 
O 	 6.705360 	 -2.457771 	 3.022819 
O 	 2.621385 	 -5.469869 	 2.213377 
O 	 -5.679886 	 6.560703 	 -0.973415 
O 	 -2.851221 	 5.767309 	 -3.786335 
O 	 0.387916 	 4.866568 	 -2.511757 
O 	 -2.232207 	 -0.537819 	 -3.429613 
O 	 1.640135 	 2.171156 	 -2.505677 
O 	 7.006786 	 -5.693922 	 -5.305881 
O 	 -5.532256 	 -1.534274 	 -6.971943 
O 	 1.553857 	 -6.880492 	 6.550379 
O 	 0.607045 	 -1.932108 	 2.462457 
O 	 -2.151453 	 0.568086 	 1.833634 
O 	 0.479195 	 -0.241075 	 -4.125335 
O 	 -7.156384 	 1.140787 	 -0.441606 
O 	 6.826223 	 6.248943 	 -2.588815 
O 	 3.659860 	 -3.120381 	 1.355281 
O 	 7.123097 	 6.733308 	 4.086073 
O 	 5.913785 	 -3.859607 	 -2.780766 
O 	 -6.844706 	 4.030611 	 0.102059 
O 	 -6.760450 	 -6.569751 	 7.050422 
O 	 4.169782 	 -5.974301 	 -5.739010 
O 	 -5.738857 	 -7.224442 	 -4.101078 
O 	 0.760198 	 -5.915200 	 -1.912005 
O 	 0.605512 	 5.984335 	 3.427018 
O 	 4.613075 	 3.323082 	 0.894733 
O 	 -0.537551 	 0.309987 	 -0.413315 
O 	 3.775311 	 5.535948 	 4.923464 
O 	 -4.878655 	 1.910005 	 6.429025 
O 	 6.231146 	 -2.889852 	 0.066339 
O 	 0.178043 	 3.758124 	 1.608740 
O 	 1.867325 	 -4.438920 	 -4.443774 
O 	 -5.415111 	 -0.868994 	 0.435742 
O 	 -4.416473 	 1.881554 	 0.777203 
O 	 -1.487344 	 7.043114 	 -5.443415 
O 	 -4.719412 	 4.402148 	 -5.652720 
O 	 -3.672310 	 -4.046968 	 -7.169528 
O 	 2.279821 	 1.227302 	 0.288554 
O 	 4.484133 	 6.570822 	 -4.093936 
O 	 1.784867 	 2.132906 	 -5.375849 
O 	 0.342636 	 -6.578833 	 0.585287 
O 	 4.199934 	 -0.854994 	 3.032913 
O 	 -6.563713 	 -5.176084 	 -1.770820 
O 	 2.771908 	 -0.981432 	 -2.616878 
O 	 2.566596 	 -3.412604 	 -1.215759 
O 	 1.404449 	 5.654325 	 0.063540 
O 	 -0.881278 	 1.180969 	 6.047889 
O 	 1.667422 	 3.556338 	 5.197922 
O 	 5.767261 	 -0.550810 	 -1.746179 
O 	 -1.996024 	 1.816337 	 -1.980910 
O 	 -3.587485 	 -1.969345 	 -1.376453 
O 	 -1.211405 	 5.768691 	 6.519520 
O 	 -1.047497 	 -1.874069 	 6.835519 
O 	 -6.425364 	 5.221021 	 6.602793 
O 	 -6.399708 	 -1.481373 	 -2.688050 
O 	 -1.998048 	 -5.621320 	 -3.579122 
O 	 -2.956098 	 -0.425288 	 -5.990260 
O 	 6.546240 	 1.241090 	 1.962698 
O 	 -4.149701 	 6.342501 	 1.504331 
O 	 2.466634 	 -3.785166 	 4.468384 
O 	 -3.910008 	 -6.808770 	 5.235622 
O 	 -3.397500 	 -4.104628 	 4.320547 
O 	 2.705499 	 6.127815 	 -6.617649 
O 	 3.756442 	 -6.038245 	 -2.601899 
O 	 -7.448154 	 1.392332 	 -7.188839 
O 	 -0.396066 	 -4.505281 	 5.991863 
O 	 -1.769661 	 3.426736 	 -4.196594 
O 	 6.302826 	 6.443762 	 0.671142 
O 	 -3.698525 	 4.667316 	 6.212540 
O 	 -2.651255 	 -2.055131 	 2.567853 
O 	 -5.633554 	 -7.070384 	 3.077415 
O 	 5.478388 	 4.736843 	 -7.001991 
O 	 2.058033 	 -0.957322 	 4.664268 
O 	 3.998152 	 3.760582 	 -4.628077 
O 	 5.592521 	 0.049181 	 -4.613686 
O 	 5.677459 	 3.602507 	 -2.146231 
O 	 -0.008052 	 -5.600652 	 -6.337386 
O 	 4.368071 	 1.780660 	 -6.829559 
O 	 4.569474 	 -6.589509 	 4.302865 
O 	 -3.297098 	 -4.100396 	 0.654033 
O 	 -6.964750 	 3.071043 	 -4.946517 
O 	 5.174096 	 -5.262189 	 6.597009 
O 	 1.586846 	 -0.586230 	 -7.069115 
O 	 4.837452 	 2.004791 	 4.577515 
O 	 0.903574 	 4.130725 	 -7.153364 
O 	 -2.496017 	 3.767956 	 0.185931 
O 	 -1.438397 	 2.559886 	 3.621889 
O 	 -2.083295 	 -6.286606 	 2.089826 
O 	 -3.315286 	 -0.947968 	 5.380237 
O 	 -1.017990 	 -6.962587 	 4.771015 
O 	 -2.983383 	 2.300619 	 -6.252068 
O 	 0.874995 	 6.904759 	 -4.136690 
O 	 -6.418350 	 -1.679700 	 4.984126 
O 	 4.833040 	 -0.495825 	 5.885910 
O 	 3.755031 	 5.773811 	 1.759571 
O 	 -0.610845 	 -3.091067 	 -4.307558 
O 	 -1.769046 	 6.040171 	 -1.245982 
K 	 -6.972889 	 -6.078107 	 0.593799 
