333
conformation = 74
H 	 -7.157036 	 -3.796129 	 -5.008806 
H 	 -6.808845 	 -2.522696 	 -4.176125 
H 	 4.192934 	 -6.503731 	 0.721127 
H 	 5.223200 	 7.508401 	 -0.147884 
H 	 -5.624559 	 -3.735286 	 2.293764 
H 	 -5.500985 	 -2.629986 	 1.242215 
H 	 4.749548 	 -2.829153 	 -6.813883 
H 	 6.216477 	 -2.862867 	 -6.388205 
H 	 -6.348595 	 -5.164674 	 5.591316 
H 	 -6.966229 	 -4.666889 	 4.222959 
H 	 6.099403 	 -5.538385 	 3.352235 
H 	 6.509234 	 -4.194771 	 2.895033 
H 	 -2.944361 	 -7.257122 	 -6.309410 
H 	 -3.885400 	 -6.035969 	 -6.606688 
H 	 -6.740712 	 3.885258 	 3.324128 
H 	 -5.199696 	 3.720066 	 2.827654 
H 	 -3.267263 	 -5.764972 	 -2.591869 
H 	 -3.428662 	 -5.443390 	 -1.086896 
H 	 -5.527833 	 1.784887 	 3.259412 
H 	 -4.147335 	 1.045833 	 3.005979 
H 	 2.948911 	 -3.171233 	 -5.387972 
H 	 2.648839 	 -1.935993 	 -6.220449 
H 	 -2.689067 	 3.590822 	 3.194290 
H 	 -3.520310 	 4.881847 	 2.553205 
H 	 1.911096 	 1.494810 	 2.547149 
H 	 1.822805 	 2.163766 	 3.978443 
H 	 6.489179 	 3.251951 	 4.583746 
H 	 7.314225 	 4.310768 	 5.632998 
H 	 0.630020 	 -2.758292 	 -1.385376 
H 	 -0.280603 	 -1.545537 	 -1.514661 
H 	 5.845898 	 -2.038750 	 3.255127 
H 	 7.375296 	 -2.202448 	 3.665565 
H 	 3.253072 	 -4.900940 	 1.829549 
H 	 1.918544 	 -5.849537 	 1.666917 
H 	 -4.669034 	 6.902498 	 -0.798432 
H 	 -5.684867 	 5.729223 	 -0.815315 
H 	 -2.252819 	 6.114795 	 -4.338582 
H 	 -3.627939 	 5.559636 	 -4.058103 
H 	 -0.032604 	 5.226485 	 -2.164783 
H 	 1.149724 	 5.451804 	 -3.124287 
H 	 -2.695034 	 -0.759547 	 -4.216957 
H 	 -2.781665 	 -0.037482 	 -2.777052 
H 	 1.431351 	 3.009430 	 -2.256541 
H 	 1.005432 	 1.685502 	 -2.759745 
H 	 -7.218939 	 -6.383749 	 -4.774761 
H 	 6.252255 	 -5.759060 	 -5.247135 
H 	 -5.868175 	 -1.216733 	 7.374452 
H 	 -6.092167 	 -2.118976 	 -6.245231 
H 	 1.050483 	 7.390763 	 5.766461 
H 	 1.415997 	 -6.655349 	 6.901516 
H 	 0.635345 	 -2.911126 	 2.977120 
H 	 -0.445218 	 -1.965740 	 2.456542 
H 	 -1.420062 	 0.173352 	 0.992205 
H 	 -2.254770 	 -0.339220 	 2.088229 
H 	 1.095476 	 -0.966288 	 -3.787253 
H 	 -0.368026 	 -0.558982 	 -3.604162 
H 	 6.938234 	 0.354294 	 -1.012052 
H 	 -7.482973 	 0.881781 	 0.369662 
H 	 -7.297325 	 6.171886 	 -3.663655 
H 	 7.150993 	 6.682396 	 -2.246843 
H 	 3.927240 	 -2.450303 	 1.767803 
H 	 4.870719 	 -3.137845 	 0.811851 
H 	 6.813035 	 5.846340 	 4.323668 
H 	 6.398901 	 7.350819 	 4.147995 
H 	 5.762884 	 -3.890676 	 -1.938098 
H 	 4.938999 	 -4.831120 	 -2.835772 
H 	 -7.193936 	 3.036956 	 -0.560703 
H 	 -6.544980 	 3.679582 	 0.806719 
H 	 -5.564461 	 -6.699631 	 7.364027 
H 	 -6.931484 	 -6.116211 	 -7.257489 
H 	 4.161825 	 -6.941219 	 -5.329051 
H 	 3.668644 	 -5.422453 	 -5.268353 
H 	 -5.082513 	 -7.196289 	 -3.419406 
H 	 -5.004603 	 7.432090 	 -4.965381 
H 	 0.160281 	 -5.416161 	 -2.476211 
H 	 1.028249 	 -6.546607 	 -2.915624 
H 	 1.101205 	 5.158606 	 3.726736 
H 	 0.267417 	 5.608532 	 2.495672 
H 	 4.025112 	 3.502458 	 1.408943 
H 	 3.910640 	 2.163197 	 0.704713 
H 	 -0.657875 	 0.529380 	 -0.990999 
H 	 0.695914 	 0.589455 	 -0.144163 
H 	 4.067412 	 6.099685 	 4.656797 
H 	 4.914714 	 4.810586 	 4.790884 
H 	 -4.935130 	 1.021072 	 5.469861 
H 	 -4.053362 	 1.108745 	 6.824236 
H 	 6.735342 	 -2.658257 	 1.084596 
H 	 6.670381 	 -1.973691 	 -0.299012 
H 	 -0.368294 	 3.305617 	 2.105946 
H 	 -0.866315 	 3.695541 	 0.741090 
H 	 2.118278 	 -5.158940 	 -3.924818 
H 	 1.227672 	 -3.960543 	 -4.401272 
H 	 -5.856356 	 -0.616090 	 -0.196325 
H 	 -4.421019 	 -1.244246 	 0.262413 
H 	 -3.744239 	 1.092749 	 1.020354 
H 	 -4.975643 	 1.593670 	 0.211324 
H 	 0.130479 	 6.859703 	 -4.922677 
H 	 -1.323487 	 6.217032 	 -6.107834 
H 	 -5.436111 	 4.383535 	 -5.207605 
H 	 -4.577655 	 4.948086 	 -6.406786 
H 	 -2.800062 	 -3.626235 	 -7.192577 
H 	 -4.289238 	 -3.188792 	 -7.222427 
H 	 3.079375 	 0.397988 	 0.276256 
H 	 2.318986 	 1.266982 	 -0.906956 
H 	 4.248211 	 5.376038 	 -4.348242 
H 	 5.268631 	 6.554672 	 -4.185233 
H 	 2.629204 	 2.471650 	 -4.755882 
H 	 1.750902 	 1.181430 	 -5.004232 
H 	 1.028570 	 7.250986 	 0.563823 
H 	 0.478809 	 -6.513434 	 -0.282676 
H 	 4.643777 	 -0.213289 	 2.516039 
H 	 3.806909 	 -0.913599 	 3.627355 
H 	 -7.229275 	 -4.828574 	 -2.532719 
H 	 -5.738381 	 -4.874858 	 -2.080171 
H 	 2.632669 	 -1.905938 	 -2.143430 
H 	 3.093692 	 -1.434513 	 -3.503589 
H 	 3.161457 	 -4.114179 	 -1.807142 
H 	 3.055706 	 -3.324492 	 -0.437728 
H 	 1.609934 	 5.355870 	 -0.939294 
H 	 1.173369 	 4.928330 	 0.485220 
H 	 -1.143010 	 1.898353 	 6.773736 
H 	 -1.333846 	 0.513595 	 5.899655 
H 	 2.624242 	 3.886027 	 5.085377 
H 	 1.424957 	 3.455003 	 5.996911 
H 	 5.799096 	 -0.378640 	 -2.597362 
H 	 4.752067 	 -0.722840 	 -1.446594 
H 	 -2.037629 	 2.614420 	 -1.253663 
H 	 -1.805536 	 2.497314 	 -2.792441 
H 	 -2.988519 	 -1.741772 	 -1.794800 
H 	 -2.940666 	 -3.085514 	 -1.059374 
H 	 -1.934560 	 5.147473 	 6.452558 
H 	 -0.495713 	 4.942788 	 7.071430 
H 	 -0.401808 	 -1.578928 	 7.309374 
H 	 -0.464830 	 -2.886594 	 6.382749 
H 	 -5.602840 	 5.216612 	 6.191992 
H 	 -6.636854 	 6.424247 	 6.376519 
H 	 -6.768346 	 -1.154039 	 -1.963867 
H 	 -5.354364 	 -1.834569 	 -2.212776 
H 	 -1.403010 	 -6.469767 	 -4.378578 
H 	 -1.476440 	 -4.841700 	 -4.167331 
H 	 -3.645887 	 -0.896831 	 -6.427674 
H 	 -2.789461 	 0.402872 	 -6.074063 
H 	 5.993309 	 1.953325 	 1.567049 
H 	 6.890364 	 1.427055 	 2.685096 
H 	 -3.028108 	 6.808359 	 1.582676 
H 	 -4.483237 	 6.690008 	 2.066106 
H 	 2.322594 	 -4.419824 	 3.670184 
H 	 1.661350 	 -4.195907 	 5.050153 
H 	 -2.957317 	 -6.956503 	 4.770831 
H 	 -3.580271 	 -6.916635 	 6.161414 
H 	 -2.999690 	 -3.805588 	 5.026627 
H 	 -4.266653 	 -4.356611 	 4.552641 
H 	 3.710680 	 5.672129 	 -7.018073 
H 	 2.665609 	 6.633349 	 7.282554 
H 	 4.185261 	 -6.852858 	 -2.954258 
H 	 3.922154 	 -6.132116 	 -1.692263 
H 	 -6.645237 	 1.276895 	 7.433694 
H 	 6.942399 	 0.472825 	 -6.768200 
H 	 -0.244740 	 -5.185862 	 6.515982 
H 	 -0.771755 	 -5.062230 	 5.137273 
H 	 -1.953662 	 4.226003 	 -4.123945 
H 	 -0.537455 	 3.660901 	 -4.152568 
H 	 7.070853 	 5.310095 	 0.112711 
H 	 5.657786 	 5.761770 	 0.687544 
H 	 -3.650606 	 4.633324 	 4.950301 
H 	 -3.737845 	 3.544740 	 5.992604 
H 	 -2.532363 	 -2.480211 	 1.508507 
H 	 -3.062082 	 -3.056481 	 2.835976 
H 	 -5.938767 	 7.194542 	 3.527594 
H 	 -4.928113 	 -6.587898 	 3.691344 
H 	 6.530986 	 4.891709 	 7.354809 
H 	 5.363590 	 3.913940 	 -7.332867 
H 	 2.129621 	 0.038645 	 4.288286 
H 	 1.872401 	 -1.625545 	 4.428560 
H 	 4.868408 	 3.490185 	 -3.671086 
H 	 4.992811 	 3.481277 	 -5.142335 
H 	 5.193612 	 1.159595 	 -5.083053 
H 	 5.301880 	 -0.355884 	 -5.515499 
H 	 5.881778 	 4.367569 	 -2.206924 
H 	 5.230244 	 3.339339 	 -1.347937 
H 	 0.633614 	 -5.647706 	 -5.687206 
H 	 -0.526690 	 -6.577018 	 -6.326133 
H 	 3.378711 	 2.154655 	 -6.471803 
H 	 4.338154 	 1.232287 	 -7.290815 
H 	 3.983367 	 -6.512042 	 3.867176 
H 	 4.857040 	 -6.014941 	 5.078222 
H 	 -2.417051 	 -5.072630 	 0.896104 
H 	 -3.842616 	 -4.351558 	 0.638599 
H 	 -7.152905 	 2.453887 	 -4.132280 
H 	 -7.037113 	 2.296544 	 -5.604113 
H 	 4.790654 	 -5.750089 	 7.255428 
H 	 5.504713 	 -4.486416 	 7.016507 
H 	 1.393463 	 -0.829283 	 6.576928 
H 	 1.498429 	 0.325566 	 -7.306852 
H 	 5.160062 	 1.103454 	 4.936463 
H 	 4.164669 	 1.998507 	 4.105389 
H 	 1.731275 	 4.477743 	 -7.042117 
H 	 1.035924 	 3.121089 	 -6.579991 
H 	 -3.223366 	 3.162202 	 0.566282 
H 	 -2.767370 	 4.489604 	 -0.158099 
H 	 -1.407266 	 1.614281 	 3.159530 
H 	 -0.884971 	 2.257621 	 4.524349 
H 	 -2.027759 	 -5.772200 	 2.952084 
H 	 -1.145029 	 -6.446381 	 1.960345 
H 	 -2.361331 	 -1.562882 	 6.057510 
H 	 -2.970640 	 -1.147728 	 4.703604 
H 	 -1.027184 	 7.037146 	 5.563122 
H 	 -0.458974 	 7.134224 	 4.164199 
H 	 -3.431580 	 2.639015 	 -6.250559 
H 	 -2.044018 	 2.434742 	 -5.870097 
H 	 1.638954 	 6.402875 	 -5.259251 
H 	 -2.342111 	 5.884538 	 -1.994772 
H 	 -5.322447 	 -1.417272 	 4.799505 
H 	 -6.100772 	 -2.767419 	 5.076868 
H 	 5.354596 	 -1.613472 	 6.315614 
H 	 3.961979 	 -0.959364 	 5.791335 
H 	 3.152443 	 5.965338 	 2.307659 
H 	 3.228799 	 5.713853 	 0.796526 
H 	 -0.352795 	 -2.848297 	 -3.534489 
H 	 -0.181327 	 -2.193703 	 -4.807689 
H 	 -2.086422 	 6.986683 	 -0.930885 
O 	 -7.090638 	 -2.809626 	 -5.087341 
O 	 4.831820 	 -6.478779 	 -0.048954 
O 	 -5.280096 	 -3.598835 	 1.410265 
O 	 5.647828 	 -2.836626 	 -7.182201 
O 	 -6.225210 	 -4.493975 	 4.856524 
O 	 6.773123 	 -5.158410 	 2.793200 
O 	 -3.910794 	 -7.025108 	 -6.546218 
O 	 -6.120648 	 3.332015 	 2.773739 
O 	 -3.948857 	 -5.567291 	 -1.922529 
O 	 -4.899477 	 1.099417 	 3.597020 
O 	 3.325326 	 -2.263904 	 -5.582691 
O 	 -3.451712 	 4.201558 	 3.314872 
O 	 2.308165 	 1.482733 	 3.412657 
O 	 6.897706 	 4.163005 	 4.735569 
O 	 -0.251274 	 -2.489075 	 -1.738274 
O 	 6.704472 	 -2.377054 	 2.951839 
O 	 2.752931 	 -5.669105 	 2.234174 
O 	 -5.479131 	 6.591420 	 -1.193005 
O 	 -2.792629 	 5.636487 	 -3.626782 
O 	 0.803036 	 4.806514 	 -2.494983 
O 	 -2.378183 	 -0.814689 	 -3.256993 
O 	 1.700559 	 2.085525 	 -2.288154 
O 	 7.232205 	 -5.763697 	 -5.336182 
O 	 -5.388825 	 -1.757895 	 -6.886086 
O 	 1.829818 	 -7.034285 	 6.119210 
O 	 0.516678 	 -2.126949 	 2.341618 
O 	 -2.029924 	 0.534671 	 1.686649 
O 	 0.403048 	 -0.410940 	 -4.217171 
O 	 -7.193056 	 0.821192 	 -0.577784 
O 	 6.847713 	 6.244816 	 -3.050106 
O 	 3.933986 	 -3.227428 	 1.208735 
O 	 7.164295 	 6.694072 	 4.049964 
O 	 5.629838 	 -4.129138 	 -2.884393 
O 	 -6.910413 	 3.877513 	 -0.141313 
O 	 -6.409859 	 -6.489767 	 6.884571 
O 	 4.287467 	 -6.012943 	 -5.784711 
O 	 -5.637312 	 -7.276190 	 -4.242152 
O 	 1.033247 	 -5.797393 	 -2.296880 
O 	 0.552336 	 5.947922 	 3.369266 
O 	 4.511847 	 2.918460 	 0.778752 
O 	 -0.136335 	 0.059474 	 -0.326298 
O 	 3.974658 	 5.165116 	 4.853819 
O 	 -4.836445 	 1.457571 	 6.385337 
O 	 6.412419 	 -2.778257 	 0.168444 
O 	 -0.072835 	 3.798074 	 1.317437 
O 	 1.968649 	 -4.561658 	 -4.720560 
O 	 -5.328241 	 -0.918509 	 0.584533 
O 	 -4.246421 	 1.896407 	 0.744169 
O 	 -1.514269 	 6.953366 	 -5.505115 
O 	 -4.531124 	 4.345236 	 -5.650810 
O 	 -3.685172 	 -3.964162 	 7.476982 
O 	 2.472814 	 1.140867 	 0.080776 
O 	 4.315820 	 6.414388 	 -4.228981 
O 	 2.009542 	 2.040368 	 -5.429464 
O 	 0.571491 	 -6.797378 	 0.649716 
O 	 4.437781 	 -1.089376 	 2.841922 
O 	 -6.656809 	 -5.026500 	 -1.759936 
O 	 2.639464 	 -1.075130 	 -2.689777 
O 	 2.605496 	 -3.455815 	 -1.332912 
O 	 1.674044 	 5.653279 	 0.026039 
O 	 -0.734730 	 1.254931 	 6.140188 
O 	 1.709655 	 3.558594 	 5.044374 
O 	 5.708498 	 -0.753530 	 -1.710434 
O 	 -1.930836 	 1.903801 	 -1.997887 
O 	 -3.447786 	 -2.261626 	 -1.104027 
O 	 -1.049958 	 5.547069 	 6.505154 
O 	 -0.960693 	 -2.080060 	 6.678064 
O 	 -6.443983 	 5.507351 	 6.669467 
O 	 -6.206404 	 -1.634471 	 -2.632823 
O 	 -1.623905 	 -5.740388 	 -3.765147 
O 	 -2.768871 	 -0.601388 	 -6.151264 
O 	 6.463767 	 1.144866 	 1.806427 
O 	 -3.799359 	 6.172552 	 1.508412 
O 	 2.291641 	 -3.740876 	 4.406999 
O 	 -3.846586 	 -6.833623 	 5.215741 
O 	 -3.346710 	 -4.280810 	 4.243910 
O 	 2.796586 	 5.911957 	 -6.949452 
O 	 3.804247 	 -6.033888 	 -2.637600 
O 	 7.298191 	 1.319416 	 -7.185276 
O 	 -0.453701 	 -4.511861 	 5.864415 
O 	 -1.466823 	 3.389663 	 -4.301877 
O 	 6.456731 	 6.075732 	 0.196596 
O 	 -3.836535 	 4.503520 	 5.955381 
O 	 -2.545195 	 -2.271064 	 2.504644 
O 	 -5.436976 	 -7.090604 	 2.944013 
O 	 5.723529 	 4.758710 	 -6.995516 
O 	 2.281300 	 -0.816923 	 4.823076 
O 	 4.278597 	 3.679254 	 -4.477629 
O 	 5.452926 	 0.274663 	 -4.784450 
O 	 5.580726 	 3.416275 	 -2.251987 
O 	 0.129290 	 -5.849505 	 -6.543221 
O 	 4.307954 	 2.079137 	 -6.826243 
O 	 4.822296 	 -6.640412 	 4.344101 
O 	 -2.861824 	 -4.386437 	 0.370582 
O 	 -6.880273 	 2.924135 	 -4.924751 
O 	 5.108623 	 -5.233432 	 6.488034 
O 	 1.423193 	 -0.656239 	 -7.379472 
O 	 5.021048 	 2.005337 	 4.603385 
O 	 1.043410 	 3.814448 	 -7.258606 
O 	 -2.506745 	 3.607522 	 0.061761 
O 	 -1.147943 	 2.438784 	 3.569486 
O 	 -2.065956 	 -6.330828 	 2.162983 
O 	 -3.215102 	 -1.113654 	 5.630288 
O 	 -1.024039 	 -7.259246 	 4.806674 
O 	 -2.702257 	 2.068347 	 -6.463946 
O 	 1.103929 	 6.891729 	 -4.582174 
O 	 -6.234220 	 -1.798869 	 4.860757 
O 	 4.928644 	 -0.773154 	 6.012011 
O 	 3.785447 	 5.682021 	 1.646712 
O 	 -0.402398 	 -3.129394 	 -4.497728 
O 	 -1.917047 	 6.048058 	 -1.105509 
K 	 -6.957309 	 -6.239905 	 0.519731 
