333
conformation = 49
H 	 -7.101530 	 -3.642723 	 -4.999920 
H 	 -7.074247 	 -2.422321 	 -4.189884 
H 	 4.260469 	 -6.609502 	 0.520431 
H 	 5.439360 	 -7.092838 	 -0.361777 
H 	 -5.377592 	 -3.676421 	 2.419222 
H 	 -5.443901 	 -2.562209 	 1.348222 
H 	 5.003800 	 -2.440919 	 -6.612384 
H 	 6.548302 	 -2.817444 	 -6.551919 
H 	 -6.231942 	 -4.946859 	 5.537865 
H 	 -6.704674 	 -4.868513 	 4.086075 
H 	 6.028249 	 -5.560723 	 3.070753 
H 	 6.673535 	 -4.077575 	 2.738182 
H 	 -2.910933 	 -7.149431 	 -6.198212 
H 	 -3.673911 	 -5.878948 	 -6.725562 
H 	 -6.624603 	 3.762701 	 3.429284 
H 	 -5.135231 	 3.713092 	 2.935916 
H 	 -3.190319 	 -5.401787 	 -2.703084 
H 	 -3.574682 	 -4.915764 	 -1.181115 
H 	 -5.162199 	 1.990989 	 3.044499 
H 	 -3.926386 	 1.053521 	 3.225433 
H 	 2.873026 	 -2.839510 	 -5.419410 
H 	 2.827924 	 -1.517404 	 -6.287355 
H 	 -2.562137 	 3.797292 	 3.190459 
H 	 -3.418533 	 5.064534 	 2.662272 
H 	 1.971694 	 1.685908 	 2.442818 
H 	 1.919596 	 2.362067 	 3.894307 
H 	 6.378815 	 3.492469 	 5.042657 
H 	 -7.320532 	 4.459501 	 5.391734 
H 	 0.819939 	 -2.653537 	 -1.581113 
H 	 -0.113985 	 -1.458324 	 -1.383442 
H 	 5.967591 	 -1.818100 	 3.211530 
H 	 -7.381561 	 -1.865953 	 3.327100 
H 	 3.123240 	 -4.694883 	 1.653415 
H 	 1.978252 	 -5.613565 	 1.605017 
H 	 -4.675506 	 6.897433 	 -0.685412 
H 	 -5.488650 	 5.721744 	 -1.093938 
H 	 -2.253698 	 6.310769 	 -4.473841 
H 	 -3.632760 	 5.644658 	 -4.148020 
H 	 -0.083541 	 5.289598 	 -2.272542 
H 	 1.060275 	 5.542112 	 -3.382391 
H 	 -2.620201 	 -0.574597 	 -4.305869 
H 	 -2.614649 	 0.192445 	 -3.009075 
H 	 1.320439 	 3.129617 	 -2.595321 
H 	 1.090072 	 1.521213 	 -2.819631 
H 	 -7.334166 	 -6.417925 	 -4.851677 
H 	 6.248828 	 -5.759716 	 -5.351247 
H 	 -5.910030 	 -1.458908 	 7.062840 
H 	 -5.921967 	 -1.910992 	 -6.290928 
H 	 1.222077 	 -7.151257 	 5.424746 
H 	 1.159323 	 -6.464422 	 6.805666 
H 	 0.586451 	 -2.777786 	 2.739756 
H 	 -0.264299 	 -1.779075 	 1.926365 
H 	 -1.274909 	 0.647129 	 0.955740 
H 	 -2.181888 	 -0.256071 	 1.882032 
H 	 1.174190 	 -0.633405 	 -3.623860 
H 	 -0.383685 	 -0.348711 	 -3.936760 
H 	 7.021190 	 0.854409 	 -1.172268 
H 	 7.413071 	 0.953027 	 0.314109 
H 	 -7.185830 	 6.227575 	 -3.484999 
H 	 7.145389 	 6.971463 	 -2.319811 
H 	 3.940222 	 -2.241625 	 1.796762 
H 	 4.837725 	 -2.943126 	 0.825961 
H 	 6.940696 	 5.897731 	 4.260668 
H 	 6.547170 	 7.383572 	 4.215930 
H 	 5.929217 	 -3.947608 	 -2.022034 
H 	 5.134683 	 -4.701169 	 -3.131372 
H 	 -7.275156 	 3.278149 	 -0.632219 
H 	 -6.550198 	 3.684287 	 0.677074 
H 	 -5.625311 	 -6.688158 	 7.167204 
H 	 -6.935552 	 -6.074477 	 -7.286584 
H 	 4.356536 	 -6.687367 	 -5.384413 
H 	 3.568497 	 -5.369242 	 -5.588744 
H 	 -5.041895 	 7.466695 	 -3.557547 
H 	 -5.035336 	 -6.934122 	 -5.111798 
H 	 0.130799 	 -5.528516 	 -2.522526 
H 	 1.170779 	 -6.551863 	 -2.820530 
H 	 0.984320 	 5.370556 	 3.790196 
H 	 0.444259 	 5.618341 	 2.411387 
H 	 4.323064 	 3.881509 	 1.303197 
H 	 3.818601 	 2.553119 	 0.545230 
H 	 -0.438977 	 0.964028 	 -1.114813 
H 	 0.664223 	 0.530916 	 -0.152772 
H 	 4.195341 	 6.335272 	 4.689741 
H 	 4.827403 	 4.990100 	 4.956203 
H 	 -4.747398 	 1.319537 	 5.397570 
H 	 -4.291707 	 1.003985 	 6.757398 
H 	 6.856540 	 -2.561778 	 0.885802 
H 	 6.454483 	 -1.873487 	 -0.532713 
H 	 -0.151488 	 3.496040 	 2.169558 
H 	 -0.727366 	 3.837149 	 0.744211 
H 	 2.294356 	 -4.970336 	 -3.983199 
H 	 1.207712 	 -3.909099 	 -4.578330 
H 	 -5.800288 	 -0.348552 	 -0.324233 
H 	 -4.541050 	 -1.075778 	 -0.083621 
H 	 -3.608394 	 1.188447 	 0.749187 
H 	 -4.976710 	 1.566553 	 0.221304 
H 	 0.184772 	 6.918392 	 -4.942194 
H 	 -1.378926 	 6.659326 	 -6.485869 
H 	 -5.435297 	 4.161153 	 -5.504514 
H 	 -4.594047 	 5.120815 	 -6.460129 
H 	 -2.820344 	 -3.327793 	 -7.486659 
H 	 -4.318927 	 -3.224960 	 7.324729 
H 	 3.063127 	 0.480307 	 0.153297 
H 	 2.507992 	 1.639501 	 -0.908638 
H 	 4.277279 	 5.580402 	 -4.462199 
H 	 5.341297 	 6.358312 	 -3.745496 
H 	 2.742054 	 2.640169 	 -5.069705 
H 	 1.637707 	 1.451187 	 -5.020921 
H 	 1.073519 	 7.389780 	 0.336401 
H 	 0.695820 	 -6.111316 	 -0.351264 
H 	 4.660014 	 -0.029149 	 2.543054 
H 	 3.703417 	 -0.916543 	 3.407045 
H 	 -7.088629 	 -4.477955 	 -2.431555 
H 	 -5.611499 	 -5.146534 	 -2.193923 
H 	 2.892101 	 -1.840251 	 -2.382714 
H 	 3.210963 	 -0.996207 	 -3.620954 
H 	 2.644285 	 -4.256831 	 -1.662542 
H 	 2.991572 	 -3.243313 	 -0.527344 
H 	 1.443023 	 5.401977 	 -0.961194 
H 	 1.201717 	 5.149260 	 0.528452 
H 	 -1.067863 	 1.770328 	 6.724762 
H 	 -1.269947 	 0.554777 	 5.880287 
H 	 2.557324 	 4.239526 	 5.047784 
H 	 1.570971 	 3.619366 	 5.965464 
H 	 5.899805 	 -0.383896 	 -2.774240 
H 	 4.921330 	 -0.544724 	 -1.578706 
H 	 -2.343966 	 2.476143 	 -1.434480 
H 	 -2.003608 	 2.491600 	 -2.932428 
H 	 -2.847118 	 -1.993970 	 -2.106743 
H 	 -2.875163 	 -2.679320 	 -0.716155 
H 	 -1.933501 	 5.356660 	 6.408532 
H 	 -0.467487 	 4.945250 	 6.594744 
H 	 -0.296911 	 -1.395608 	 7.144611 
H 	 -0.654644 	 -2.797976 	 6.343601 
H 	 -5.462732 	 5.247881 	 6.277866 
H 	 -6.559632 	 6.465368 	 6.340977 
H 	 -6.541015 	 -0.934900 	 -2.063947 
H 	 -5.396941 	 -1.898222 	 -2.392465 
H 	 -1.497586 	 -6.351548 	 -4.447498 
H 	 -1.539430 	 -4.845533 	 -4.366026 
H 	 -3.620393 	 -0.815939 	 -6.507641 
H 	 -2.793140 	 0.564460 	 -6.292964 
H 	 6.025360 	 2.120918 	 1.595866 
H 	 7.278931 	 1.623926 	 2.287635 
H 	 -3.026222 	 6.768556 	 1.495578 
H 	 -4.434534 	 6.879287 	 1.992007 
H 	 2.458956 	 -4.457930 	 3.730659 
H 	 2.007380 	 -3.884244 	 5.108436 
H 	 -2.848567 	 -6.788384 	 4.895426 
H 	 -3.892088 	 -6.612385 	 6.042988 
H 	 -2.783904 	 -4.201694 	 4.984284 
H 	 -4.243669 	 -4.284170 	 4.438493 
H 	 3.820368 	 5.868792 	 -7.105463 
H 	 2.536058 	 6.582838 	 7.178610 
H 	 3.786515 	 -6.692738 	 -3.299806 
H 	 4.116232 	 -6.257719 	 -1.731185 
H 	 -6.633302 	 1.282447 	 7.184246 
H 	 7.448320 	 0.671040 	 -6.703850 
H 	 -0.318897 	 -4.976115 	 6.602899 
H 	 -0.584733 	 -5.047361 	 5.053499 
H 	 -2.076228 	 4.348167 	 -4.171787 
H 	 -0.620682 	 3.762961 	 -4.178275 
H 	 7.024175 	 5.493113 	 0.074883 
H 	 5.814962 	 6.043442 	 0.891246 
H 	 -3.511889 	 4.739254 	 4.918012 
H 	 -3.849769 	 3.683570 	 6.029636 
H 	 -2.409631 	 -2.575761 	 1.588000 
H 	 -3.076719 	 -2.718606 	 2.979673 
H 	 -6.232466 	 -7.238618 	 3.396530 
H 	 -4.757832 	 -6.678139 	 3.467210 
H 	 6.617250 	 5.110209 	 7.401471 
H 	 5.627092 	 3.915937 	 -7.336195 
H 	 2.043609 	 0.072115 	 4.199543 
H 	 1.731373 	 -1.419465 	 4.193581 
H 	 4.677499 	 3.494295 	 -3.813456 
H 	 5.084054 	 4.000357 	 -5.214360 
H 	 5.232670 	 1.021557 	 -5.450656 
H 	 5.440068 	 -0.512288 	 -5.351604 
H 	 6.037529 	 4.491418 	 -2.373274 
H 	 5.049938 	 3.551546 	 -1.623554 
H 	 0.822289 	 -5.304626 	 -5.961095 
H 	 -0.175916 	 -6.474832 	 -6.118389 
H 	 3.404890 	 2.151183 	 -6.700761 
H 	 4.552155 	 1.358499 	 7.406081 
H 	 4.132709 	 -6.153429 	 3.642146 
H 	 4.853462 	 -5.840044 	 5.024522 
H 	 -2.676022 	 -4.826927 	 1.016036 
H 	 -3.722627 	 -3.823197 	 0.644976 
H 	 -7.068180 	 2.393364 	 -4.375497 
H 	 -7.023142 	 2.716007 	 -5.982180 
H 	 4.801581 	 -5.695508 	 7.117210 
H 	 5.364749 	 -4.240574 	 6.752631 
H 	 1.713624 	 -0.469096 	 6.519710 
H 	 1.457286 	 0.434042 	 -7.167271 
H 	 5.053330 	 1.280722 	 4.951780 
H 	 4.156018 	 2.104962 	 4.043494 
H 	 1.721579 	 4.789397 	 -7.196185 
H 	 1.338420 	 3.335180 	 -6.662921 
H 	 -3.313861 	 3.277657 	 0.248928 
H 	 -2.584772 	 4.662031 	 -0.405730 
H 	 -1.469612 	 1.800805 	 2.916845 
H 	 -1.086904 	 2.186797 	 4.391616 
H 	 -1.886352 	 -5.835631 	 2.960620 
H 	 -1.047067 	 -6.336267 	 1.721702 
H 	 -2.400449 	 -1.365658 	 5.915495 
H 	 -2.851779 	 -0.903165 	 4.518902 
H 	 -1.070691 	 7.130431 	 5.356450 
H 	 -0.609937 	 7.317225 	 3.909925 
H 	 -3.582359 	 2.799252 	 -6.426109 
H 	 -2.223654 	 2.508820 	 -5.646966 
H 	 1.730797 	 7.159141 	 -5.314399 
H 	 -2.241683 	 6.161418 	 -2.160034 
H 	 -5.477154 	 -1.099289 	 4.718921 
H 	 -5.934681 	 -2.630359 	 4.764589 
H 	 5.285628 	 -1.402414 	 6.313709 
H 	 4.154705 	 -0.759785 	 5.416787 
H 	 3.258698 	 5.858653 	 2.365697 
H 	 3.274182 	 5.849490 	 0.746696 
H 	 -0.517627 	 -2.562245 	 -3.636033 
H 	 -0.457514 	 -2.193884 	 -5.150497 
H 	 -1.702549 	 7.024703 	 -0.918663 
O 	 -7.028089 	 -2.659021 	 -5.146256 
O 	 4.829208 	 -6.362130 	 -0.233058 
O 	 -5.248303 	 -3.500872 	 1.474343 
O 	 5.803053 	 -2.685986 	 -7.181713 
O 	 -6.161800 	 -4.367181 	 4.748567 
O 	 6.826197 	 -5.045847 	 2.709375 
O 	 -3.791529 	 -6.851888 	 -6.674656 
O 	 -6.057513 	 3.512091 	 2.676996 
O 	 -3.882163 	 -5.394725 	 -1.983778 
O 	 -4.845229 	 1.213140 	 3.547691 
O 	 3.386454 	 -2.058855 	 -5.688893 
O 	 -3.395794 	 4.329769 	 3.284434 
O 	 2.298538 	 1.571915 	 3.370139 
O 	 6.918092 	 4.206962 	 4.704887 
O 	 -0.120298 	 -2.417519 	 -1.682142 
O 	 6.760282 	 -2.313384 	 2.880325 
O 	 2.766338 	 -5.494856 	 2.114373 
O 	 -5.491830 	 6.706606 	 -1.238414 
O 	 -2.699031 	 5.743211 	 -3.775558 
O 	 0.757334 	 4.921662 	 -2.603522 
O 	 -2.269099 	 -0.633860 	 -3.398280 
O 	 1.753702 	 2.225628 	 -2.484757 
O 	 7.229764 	 -5.654738 	 -5.415616 
O 	 -5.352763 	 -1.579478 	 -7.015738 
O 	 1.812867 	 -6.870205 	 6.142278 
O 	 0.617606 	 -1.961946 	 2.274686 
O 	 -2.008239 	 0.684231 	 1.608753 
O 	 0.512270 	 -0.355106 	 -4.305822 
O 	 -7.090713 	 0.997475 	 -0.630953 
O 	 6.862974 	 6.360268 	 -3.048361 
O 	 3.941856 	 -3.062124 	 1.189152 
O 	 7.260205 	 6.782328 	 3.944114 
O 	 5.767983 	 -3.962878 	 -2.974033 
O 	 -6.796179 	 3.991179 	 -0.174106 
O 	 -6.460444 	 -6.413017 	 6.795599 
O 	 4.308340 	 -5.880758 	 -5.882801 
O 	 -5.589022 	 -7.119649 	 -4.314050 
O 	 1.080129 	 -5.724839 	 -2.282808 
O 	 0.633272 	 6.085853 	 3.280936 
O 	 4.608823 	 3.150503 	 0.706072 
O 	 -0.190611 	 0.220684 	 -0.488670 
O 	 3.981206 	 5.359676 	 4.774019 
O 	 -4.754036 	 1.717609 	 6.275836 
O 	 6.427057 	 -2.698107 	 0.003520 
O 	 0.119596 	 3.881010 	 1.284896 
O 	 2.028845 	 -4.456226 	 -4.737245 
O 	 -5.304912 	 -0.763954 	 0.405002 
O 	 -4.172827 	 1.984002 	 0.643433 
O 	 -1.434388 	 7.067603 	 -5.595772 
O 	 -4.532663 	 4.450068 	 -5.765917 
O 	 -3.620759 	 -3.891658 	 -7.436705 
O 	 2.482925 	 1.287191 	 0.021743 
O 	 4.506300 	 6.505935 	 -4.300363 
O 	 2.038802 	 2.183106 	 -5.541715 
O 	 0.577662 	 -6.650169 	 0.496324 
O 	 4.464186 	 -0.949787 	 2.804877 
O 	 -6.524754 	 -4.979542 	 -1.844350 
O 	 2.703033 	 -0.960126 	 -2.793848 
O 	 2.697789 	 -3.316132 	 -1.447194 
O 	 1.672174 	 5.768127 	 -0.089310 
O 	 -0.683811 	 1.329873 	 5.961499 
O 	 1.770028 	 3.614223 	 4.992108 
O 	 5.850855 	 -0.602669 	 -1.802960 
O 	 -1.870737 	 1.999227 	 -2.103934 
O 	 -3.404836 	 -2.066294 	 -1.307256 
O 	 -0.996100 	 5.724882 	 6.366883 
O 	 -0.921647 	 -1.898471 	 6.595031 
O 	 -6.372986 	 5.509644 	 6.497100 
O 	 -6.209968 	 -1.489081 	 -2.779599 
O 	 -1.701745 	 -5.617429 	 -3.808549 
O 	 -2.743134 	 -0.411858 	 -6.239955 
O 	 6.576180 	 1.273000 	 1.727897 
O 	 -3.872791 	 6.329042 	 1.397076 
O 	 2.447633 	 -3.665514 	 4.301634 
O 	 -3.788439 	 -6.702098 	 5.072066 
O 	 -3.291538 	 -4.129991 	 4.152349 
O 	 2.846756 	 6.062164 	 -6.941610 
O 	 3.911482 	 -5.899049 	 -2.687315 
O 	 7.404478 	 1.439326 	 -7.295662 
O 	 -0.354182 	 -4.387396 	 5.774410 
O 	 -1.534371 	 3.532014 	 -4.423628 
O 	 6.470344 	 6.308781 	 0.237525 
O 	 -3.693419 	 4.662917 	 5.883465 
O 	 -2.536322 	 -2.121483 	 2.417347 
O 	 -5.415011 	 -7.005634 	 2.894053 
O 	 5.720922 	 4.865444 	 -7.105875 
O 	 2.300430 	 -0.780882 	 4.636128 
O 	 4.298571 	 3.815874 	 -4.670859 
O 	 5.568430 	 0.316429 	 -4.833530 
O 	 5.699040 	 3.579477 	 -2.359372 
O 	 0.153228 	 -5.660453 	 -6.542590 
O 	 4.342663 	 2.123457 	 -6.888881 
O 	 4.834271 	 -6.506905 	 4.228491 
O 	 -2.924702 	 -4.204512 	 0.276041 
O 	 -6.783977 	 3.078321 	 -5.039987 
O 	 5.216680 	 -5.135729 	 6.393191 
O 	 1.556319 	 -0.524468 	 -7.375584 
O 	 5.033859 	 2.129231 	 4.450661 
O 	 1.089199 	 4.014287 	 -7.331257 
O 	 -2.463604 	 3.748132 	 -0.004828 
O 	 -1.157317 	 2.571349 	 3.500446 
O 	 -2.011848 	 -6.218491 	 2.065753 
O 	 -3.143100 	 -1.004105 	 5.448675 
O 	 -0.943559 	 -7.048516 	 4.657990 
O 	 -2.728573 	 2.243716 	 -6.491071 
O 	 1.104206 	 6.996400 	 -4.589821 
O 	 -6.225768 	 -1.692195 	 4.765715 
O 	 4.991062 	 -0.610825 	 5.832222 
O 	 3.835736 	 5.810689 	 1.544148 
O 	 -0.370514 	 -2.945018 	 -4.562419 
O 	 -1.807480 	 6.131275 	 -1.253994 
K 	 -6.886851 	 -6.092057 	 0.399926 
