333
conformation = 77
H 	 -7.140032 	 -3.796634 	 -4.965596 
H 	 -6.786391 	 -2.546918 	 -4.171223 
H 	 4.194707 	 -6.463657 	 0.741972 
H 	 5.203108 	 7.531159 	 -0.139696 
H 	 -5.639134 	 -3.714407 	 2.269049 
H 	 -5.516698 	 -2.624143 	 1.218913 
H 	 4.729225 	 -2.838000 	 -6.839827 
H 	 6.197234 	 -2.819973 	 -6.409688 
H 	 -6.336671 	 -5.182288 	 5.570386 
H 	 -6.964830 	 -4.655102 	 4.247492 
H 	 6.111836 	 -5.561420 	 3.364605 
H 	 6.508240 	 -4.183186 	 2.873140 
H 	 -2.981675 	 -7.257058 	 -6.305850 
H 	 -3.878842 	 -6.044902 	 -6.582653 
H 	 -6.752332 	 3.888984 	 3.305641 
H 	 -5.224580 	 3.728406 	 2.799693 
H 	 -3.282535 	 -5.774568 	 -2.639992 
H 	 -3.458363 	 -5.443085 	 -1.110668 
H 	 -5.565274 	 1.768499 	 3.279912 
H 	 -4.159040 	 1.063564 	 2.962712 
H 	 2.972400 	 -3.166171 	 -5.375462 
H 	 2.644718 	 -1.953568 	 -6.198593 
H 	 -2.700258 	 3.579020 	 3.219600 
H 	 -3.516644 	 4.886088 	 2.530785 
H 	 1.893625 	 1.498098 	 2.550331 
H 	 1.849601 	 2.166545 	 3.962599 
H 	 6.503428 	 3.270816 	 4.558162 
H 	 7.303217 	 4.289609 	 5.635704 
H 	 0.590426 	 -2.748107 	 -1.379324 
H 	 -0.275924 	 -1.534974 	 -1.494797 
H 	 5.853130 	 -2.018385 	 3.213030 
H 	 7.360168 	 -2.203492 	 3.671182 
H 	 3.213300 	 -4.898780 	 1.830670 
H 	 1.961377 	 -5.840426 	 1.649790 
H 	 -4.639888 	 6.888795 	 -0.797935 
H 	 -5.679419 	 5.740787 	 -0.777065 
H 	 -2.260632 	 6.125518 	 -4.348879 
H 	 -3.630434 	 5.529630 	 -4.052047 
H 	 -0.017327 	 5.211845 	 -2.163672 
H 	 1.143613 	 5.450864 	 -3.119966 
H 	 -2.705631 	 -0.759158 	 -4.216074 
H 	 -2.771514 	 0.003639 	 -2.816554 
H 	 1.441281 	 3.024039 	 -2.217063 
H 	 0.983370 	 1.683581 	 -2.775962 
H 	 -7.226629 	 -6.339146 	 -4.767376 
H 	 6.254241 	 -5.776227 	 -5.228530 
H 	 -5.854007 	 -1.193575 	 7.369685 
H 	 -6.073619 	 -2.127635 	 -6.260878 
H 	 1.053952 	 7.397023 	 5.800883 
H 	 1.444030 	 -6.649362 	 6.896402 
H 	 0.682755 	 -2.881559 	 2.966409 
H 	 -0.440640 	 -1.968048 	 2.496462 
H 	 -1.423967 	 0.158766 	 0.970477 
H 	 -2.264312 	 -0.358340 	 2.113472 
H 	 1.116879 	 -0.957984 	 -3.796454 
H 	 -0.383261 	 -0.522053 	 -3.611949 
H 	 6.944725 	 0.332986 	 -0.984630 
H 	 -7.466541 	 0.877495 	 0.340870 
H 	 -7.305656 	 6.206348 	 -3.666943 
H 	 7.180231 	 6.671612 	 -2.243136 
H 	 3.950934 	 -2.456689 	 1.752383 
H 	 4.873621 	 -3.117526 	 0.803014 
H 	 6.791542 	 5.840813 	 4.306500 
H 	 6.368272 	 7.354216 	 4.127584 
H 	 5.761587 	 -3.841350 	 -1.960612 
H 	 4.940999 	 -4.842077 	 -2.837618 
H 	 -7.169086 	 3.038981 	 -0.566194 
H 	 -6.548120 	 3.706132 	 0.780511 
H 	 -5.579648 	 -6.682296 	 7.358659 
H 	 -6.950453 	 -6.125730 	 -7.229572 
H 	 4.124650 	 -6.914551 	 -5.387521 
H 	 3.702145 	 -5.432667 	 -5.278077 
H 	 -5.101971 	 -7.139946 	 -3.390474 
H 	 -4.988315 	 7.418409 	 -4.969357 
H 	 0.159527 	 -5.410568 	 -2.510055 
H 	 1.005133 	 -6.529234 	 -2.932576 
H 	 1.062239 	 5.156391 	 3.721740 
H 	 0.234453 	 5.573546 	 2.485480 
H 	 4.027232 	 3.525593 	 1.392460 
H 	 3.889076 	 2.148998 	 0.677117 
H 	 -0.660153 	 0.531796 	 -0.959368 
H 	 0.695452 	 0.594759 	 -0.172670 
H 	 4.072558 	 6.088284 	 4.661201 
H 	 4.879945 	 4.835683 	 4.766247 
H 	 -4.897714 	 1.023051 	 5.470748 
H 	 -4.031704 	 1.110575 	 6.772435 
H 	 6.728369 	 -2.660113 	 1.102860 
H 	 6.668625 	 -1.978377 	 -0.314467 
H 	 -0.377428 	 3.300354 	 2.128911 
H 	 -0.875387 	 3.712009 	 0.764537 
H 	 2.121487 	 -5.126565 	 -3.955595 
H 	 1.229712 	 -3.932956 	 -4.457218 
H 	 -5.856767 	 -0.609996 	 -0.176805 
H 	 -4.414426 	 -1.245889 	 0.237394 
H 	 -3.751821 	 1.070513 	 1.000276 
H 	 -4.981590 	 1.559137 	 0.195983 
H 	 0.136138 	 6.876918 	 -4.916732 
H 	 -1.315040 	 6.196793 	 -6.071573 
H 	 -5.442293 	 4.361692 	 -5.202073 
H 	 -4.574317 	 4.926041 	 -6.415506 
H 	 -2.796668 	 -3.644761 	 -7.168301 
H 	 -4.278684 	 -3.176999 	 -7.189005 
H 	 3.068621 	 0.338241 	 0.279854 
H 	 2.277780 	 1.277460 	 -0.890310 
H 	 4.255846 	 5.417496 	 -4.346784 
H 	 5.292569 	 6.543307 	 -4.225969 
H 	 2.620765 	 2.492012 	 -4.728041 
H 	 1.734684 	 1.148853 	 -5.010991 
H 	 1.006266 	 7.214276 	 0.582880 
H 	 0.464173 	 -6.498410 	 -0.321416 
H 	 4.686330 	 -0.225974 	 2.526715 
H 	 3.809051 	 -0.892703 	 3.643810 
H 	 -7.228754 	 -4.865147 	 -2.502014 
H 	 -5.746398 	 -4.850070 	 -2.056500 
H 	 2.591608 	 -1.917356 	 -2.133791 
H 	 3.099612 	 -1.445450 	 -3.495942 
H 	 3.178311 	 -4.045003 	 -1.834735 
H 	 3.064126 	 -3.318855 	 -0.420898 
H 	 1.630858 	 5.386140 	 -0.917933 
H 	 1.160273 	 4.896597 	 0.472126 
H 	 -1.146086 	 1.898441 	 6.759641 
H 	 -1.326964 	 0.524917 	 5.913445 
H 	 2.612941 	 3.876018 	 5.114190 
H 	 1.427232 	 3.484949 	 6.010358 
H 	 5.794002 	 -0.399071 	 -2.608302 
H 	 4.753243 	 -0.752605 	 -1.452091 
H 	 -2.013358 	 2.612216 	 -1.265082 
H 	 -1.764758 	 2.476685 	 -2.782506 
H 	 -2.992977 	 -1.740437 	 -1.772521 
H 	 -2.926549 	 -3.123681 	 -1.116622 
H 	 -1.939404 	 5.101806 	 6.449326 
H 	 -0.498469 	 4.955044 	 7.091599 
H 	 -0.429179 	 -1.569149 	 7.323474 
H 	 -0.480067 	 -2.875680 	 6.370580 
H 	 -5.616657 	 5.199195 	 6.214845 
H 	 -6.668220 	 6.446873 	 6.384906 
H 	 -6.774695 	 -1.174600 	 -1.964784 
H 	 -5.346755 	 -1.823598 	 -2.175509 
H 	 -1.411718 	 -6.471089 	 -4.412110 
H 	 -1.463377 	 -4.843748 	 -4.170684 
H 	 -3.654843 	 -0.929435 	 -6.425136 
H 	 -2.764876 	 0.372444 	 -6.091220 
H 	 5.997614 	 1.970998 	 1.588548 
H 	 6.833492 	 1.427352 	 2.694589 
H 	 -3.044565 	 6.826794 	 1.589180 
H 	 -4.478754 	 6.709837 	 2.051982 
H 	 2.342059 	 -4.402145 	 3.636500 
H 	 1.651322 	 -4.193500 	 5.028252 
H 	 -2.979058 	 -6.958372 	 4.749002 
H 	 -3.571045 	 -6.932397 	 6.181812 
H 	 -3.015211 	 -3.762135 	 5.002617 
H 	 -4.272979 	 -4.410785 	 4.538847 
H 	 3.706332 	 5.664994 	 -7.003796 
H 	 2.676978 	 6.646866 	 7.271131 
H 	 4.209701 	 -6.868907 	 -2.951546 
H 	 3.924340 	 -6.096730 	 -1.693429 
H 	 -6.655571 	 1.232514 	 7.441987 
H 	 6.948851 	 0.453446 	 -6.796535 
H 	 -0.230999 	 -5.207650 	 6.541244 
H 	 -0.789273 	 -5.093142 	 5.132847 
H 	 -1.946614 	 4.228022 	 -4.128415 
H 	 -0.522801 	 3.666823 	 -4.160416 
H 	 7.073846 	 5.284101 	 0.078854 
H 	 5.685045 	 5.753392 	 0.672614 
H 	 -3.674178 	 4.624071 	 4.974110 
H 	 -3.762727 	 3.530431 	 6.008132 
H 	 -2.549424 	 -2.466755 	 1.508004 
H 	 -3.025506 	 -3.066338 	 2.860983 
H 	 -5.948964 	 7.168051 	 3.494395 
H 	 -4.963347 	 -6.586886 	 3.671896 
H 	 6.570778 	 4.889244 	 7.346254 
H 	 5.353277 	 3.925075 	 -7.352873 
H 	 2.137753 	 0.010923 	 4.292770 
H 	 1.918007 	 -1.612211 	 4.430225 
H 	 4.877674 	 3.523940 	 -3.671866 
H 	 4.967813 	 3.442857 	 -5.139193 
H 	 5.175642 	 1.190210 	 -5.076773 
H 	 5.270334 	 -0.337237 	 -5.533871 
H 	 5.882000 	 4.354327 	 -2.210475 
H 	 5.267527 	 3.332029 	 -1.347601 
H 	 0.623104 	 -5.676961 	 -5.702290 
H 	 -0.551788 	 -6.551987 	 -6.338752 
H 	 3.399390 	 2.169788 	 -6.450753 
H 	 4.362363 	 1.234867 	 -7.323284 
H 	 3.975565 	 -6.519988 	 3.887663 
H 	 4.841109 	 -6.021619 	 5.099775 
H 	 -2.380316 	 -5.096172 	 0.889345 
H 	 -3.864282 	 -4.375576 	 0.665479 
H 	 -7.157183 	 2.479848 	 -4.085364 
H 	 -7.054968 	 2.267743 	 -5.613111 
H 	 4.767026 	 -5.755867 	 7.280126 
H 	 5.513573 	 -4.489371 	 6.975364 
H 	 1.410262 	 -0.818692 	 6.541585 
H 	 1.489342 	 0.339356 	 -7.338709 
H 	 5.169135 	 1.105340 	 4.926361 
H 	 4.181761 	 1.981245 	 4.112809 
H 	 1.746173 	 4.477215 	 -7.055862 
H 	 1.010741 	 3.123832 	 -6.578366 
H 	 -3.220718 	 3.115512 	 0.564972 
H 	 -2.750763 	 4.495174 	 -0.128008 
H 	 -1.386812 	 1.597337 	 3.173970 
H 	 -0.856919 	 2.262466 	 4.493131 
H 	 -2.029965 	 -5.771013 	 2.946775 
H 	 -1.106919 	 -6.435859 	 1.996307 
H 	 -2.373714 	 -1.555549 	 6.077398 
H 	 -2.988013 	 -1.169123 	 4.705277 
H 	 -1.018442 	 7.035258 	 5.603152 
H 	 -0.451686 	 7.136139 	 4.171864 
H 	 -3.432396 	 2.653460 	 -6.258774 
H 	 -2.005077 	 2.456456 	 -5.898104 
H 	 1.643185 	 6.366299 	 -5.217159 
H 	 -2.356464 	 5.861750 	 -1.972078 
H 	 -5.322028 	 -1.442090 	 4.792174 
H 	 -6.135017 	 -2.747085 	 5.121608 
H 	 5.387988 	 -1.579536 	 6.317627 
H 	 3.986388 	 -0.953980 	 5.834445 
H 	 3.166574 	 6.000837 	 2.343741 
H 	 3.252821 	 5.689282 	 0.835997 
H 	 -0.356428 	 -2.873601 	 -3.564641 
H 	 -0.166599 	 -2.213087 	 -4.783797 
H 	 -2.104196 	 6.970947 	 -0.933577 
O 	 -7.092933 	 -2.811470 	 -5.093839 
O 	 4.836460 	 -6.479720 	 -0.038491 
O 	 -5.279739 	 -3.596483 	 1.395479 
O 	 5.636853 	 -2.840429 	 -7.186709 
O 	 -6.226522 	 -4.493600 	 4.857900 
O 	 6.771530 	 -5.152514 	 2.795801 
O 	 -3.915533 	 -7.026171 	 -6.543494 
O 	 -6.121166 	 3.331457 	 2.773458 
O 	 -3.944845 	 -5.574816 	 -1.922941 
O 	 -4.899984 	 1.097871 	 3.595951 
O 	 3.323058 	 -2.271612 	 -5.583118 
O 	 -3.452334 	 4.203167 	 3.306139 
O 	 2.313387 	 1.488896 	 3.408775 
O 	 6.899498 	 4.168609 	 4.729670 
O 	 -0.258399 	 -2.486399 	 -1.754966 
O 	 6.707174 	 -2.372459 	 2.953124 
O 	 2.758664 	 -5.673947 	 2.238272 
O 	 -5.475863 	 6.594281 	 -1.199231 
O 	 -2.795348 	 5.642669 	 -3.622003 
O 	 0.812669 	 4.812299 	 -2.493074 
O 	 -2.383345 	 -0.820338 	 -3.249572 
O 	 1.702317 	 2.085426 	 -2.277597 
O 	 7.240143 	 -5.757416 	 -5.340177 
O 	 -5.388460 	 -1.761452 	 -6.880137 
O 	 1.836343 	 -7.038630 	 6.109175 
O 	 0.509450 	 -2.132173 	 2.342892 
O 	 -2.027112 	 0.530763 	 1.687763 
O 	 0.396396 	 -0.401580 	 -4.215367 
O 	 -7.199005 	 0.817777 	 -0.581400 
O 	 6.851917 	 6.244582 	 -3.060207 
O 	 3.935738 	 -3.234388 	 1.198813 
O 	 7.162850 	 6.702730 	 4.050851 
O 	 5.622551 	 -4.130236 	 -2.880941 
O 	 -6.914729 	 3.878428 	 -0.143062 
O 	 -6.397894 	 -6.482252 	 6.884601 
O 	 4.291132 	 -6.016066 	 -5.778748 
O 	 -5.636292 	 -7.282110 	 -4.244177 
O 	 1.031787 	 -5.792345 	 -2.305293 
O 	 0.554577 	 5.948711 	 3.369287 
O 	 4.508739 	 2.908109 	 0.779028 
O 	 -0.128679 	 0.058118 	 -0.319475 
O 	 3.982399 	 5.158390 	 4.851983 
O 	 -4.842434 	 1.446529 	 6.391677 
O 	 6.418781 	 -2.773171 	 0.179549 
O 	 -0.087100 	 3.804045 	 1.308910 
O 	 1.965875 	 -4.560608 	 -4.721945 
O 	 -5.322897 	 -0.922280 	 0.597977 
O 	 -4.251361 	 1.905871 	 0.748202 
O 	 -1.516178 	 6.954665 	 -5.505635 
O 	 -4.524303 	 4.352945 	 -5.647913 
O 	 -3.685840 	 -3.958070 	 7.468896 
O 	 2.479613 	 1.139563 	 0.077709 
O 	 4.299420 	 6.422373 	 -4.230286 
O 	 2.011181 	 2.038794 	 -5.423530 
O 	 0.576201 	 -6.796856 	 0.659172 
O 	 4.435852 	 -1.087286 	 2.836591 
O 	 -6.667161 	 -5.014963 	 -1.766692 
O 	 2.641598 	 -1.073496 	 -2.688714 
O 	 2.603019 	 -3.456951 	 -1.327611 
O 	 1.680511 	 5.654162 	 0.026744 
O 	 -0.736690 	 1.263450 	 6.150669 
O 	 1.709372 	 3.565641 	 5.034627 
O 	 5.696420 	 -0.750145 	 -1.712761 
O 	 -1.931022 	 1.908639 	 -1.993860 
O 	 -3.448776 	 -2.262978 	 -1.092503 
O 	 -1.050669 	 5.543814 	 6.513716 
O 	 -0.956595 	 -2.085064 	 6.678724 
O 	 -6.444183 	 5.520422 	 6.676577 
O 	 -6.200422 	 -1.635008 	 -2.628791 
O 	 -1.609876 	 -5.736395 	 -3.765821 
O 	 -2.767180 	 -0.605030 	 -6.146994 
O 	 6.457132 	 1.144285 	 1.805960 
O 	 -3.785301 	 6.170725 	 1.510902 
O 	 2.276232 	 -3.735830 	 4.410623 
O 	 -3.844360 	 -6.836486 	 5.221983 
O 	 -3.346808 	 -4.277799 	 4.245457 
O 	 2.796568 	 5.910607 	 -6.959059 
O 	 3.797086 	 -6.037537 	 -2.640410 
O 	 7.292931 	 1.325669 	 -7.183303 
O 	 -0.456744 	 -4.508917 	 5.863096 
O 	 -1.452589 	 3.387965 	 -4.298572 
O 	 6.457005 	 6.066503 	 0.184649 
O 	 -3.843338 	 4.502723 	 5.952200 
O 	 -2.540166 	 -2.270511 	 2.500307 
O 	 -5.431493 	 -7.084367 	 2.943699 
O 	 5.724440 	 4.760927 	 -6.991589 
O 	 2.282992 	 -0.806867 	 4.833484 
O 	 4.281624 	 3.677677 	 -4.467326 
O 	 5.448644 	 0.284258 	 -4.785639 
O 	 5.574378 	 3.415044 	 -2.244523 
O 	 0.131341 	 -5.856505 	 -6.555012 
O 	 4.309622 	 2.087100 	 -6.830565 
O 	 4.825970 	 -6.641458 	 4.343654 
O 	 -2.848634 	 -4.392564 	 0.370949 
O 	 -6.885112 	 2.923424 	 -4.919735 
O 	 5.104853 	 -5.228225 	 6.492207 
O 	 1.414984 	 -0.658963 	 -7.385637 
O 	 5.026481 	 2.006496 	 4.610471 
O 	 1.041593 	 3.807769 	 -7.258908 
O 	 -2.503450 	 3.611848 	 0.058775 
O 	 -1.142002 	 2.441161 	 3.567504 
O 	 -2.067326 	 -6.327399 	 2.161438 
O 	 -3.215758 	 -1.109322 	 5.638143 
O 	 -1.026379 	 -7.265728 	 4.812475 
O 	 -2.693520 	 2.067173 	 -6.468815 
O 	 1.109276 	 6.891855 	 -4.590947 
O 	 -6.227764 	 -1.795714 	 4.862268 
O 	 4.922986 	 -0.776006 	 6.020929 
O 	 3.783928 	 5.682772 	 1.644062 
O 	 -0.398391 	 -3.133922 	 -4.495414 
O 	 -1.922859 	 6.056886 	 -1.102315 
K 	 -6.959382 	 -6.240987 	 0.524387 
