333
conformation = 52
H 	 -7.117308 	 -3.690351 	 -4.953891 
H 	 -7.042363 	 -2.453078 	 -4.114980 
H 	 4.271520 	 -6.647356 	 0.597202 
H 	 5.434322 	 -7.181534 	 -0.254300 
H 	 -5.400088 	 -3.741779 	 2.509701 
H 	 -5.424118 	 -2.602844 	 1.406850 
H 	 4.982345 	 -2.506228 	 -6.551806 
H 	 6.525027 	 -2.883058 	 -6.431752 
H 	 -6.253606 	 -4.990676 	 5.637605 
H 	 -6.733978 	 -4.886143 	 4.161350 
H 	 6.045423 	 -5.610774 	 3.171324 
H 	 6.695900 	 -4.119634 	 2.821740 
H 	 -2.894265 	 -7.200386 	 -6.133930 
H 	 -3.712338 	 -5.920737 	 -6.649388 
H 	 -6.603200 	 3.769904 	 3.518006 
H 	 -5.123107 	 3.666746 	 3.046721 
H 	 -3.193494 	 -5.481175 	 -2.585942 
H 	 -3.536623 	 -5.003149 	 -1.043500 
H 	 -5.155348 	 1.945462 	 3.137638 
H 	 -3.946939 	 1.031610 	 3.280565 
H 	 2.889788 	 -2.927357 	 -5.325784 
H 	 2.832030 	 -1.567800 	 -6.217842 
H 	 -2.563715 	 3.758897 	 3.237705 
H 	 -3.401501 	 5.021226 	 2.739536 
H 	 1.970382 	 1.632460 	 2.516792 
H 	 1.893190 	 2.309231 	 3.982164 
H 	 6.396451 	 3.423931 	 5.107204 
H 	 -7.340084 	 4.403352 	 5.508374 
H 	 0.826979 	 -2.696677 	 -1.479344 
H 	 -0.133594 	 -1.497475 	 -1.339528 
H 	 5.946398 	 -1.874109 	 3.340581 
H 	 -7.380721 	 -1.921202 	 3.448180 
H 	 3.161998 	 -4.745941 	 1.730775 
H 	 1.953847 	 -5.656351 	 1.691627 
H 	 -4.671398 	 6.860533 	 -0.613238 
H 	 -5.481839 	 5.687020 	 -0.984637 
H 	 -2.239292 	 6.279023 	 -4.356993 
H 	 -3.649539 	 5.624353 	 -4.067754 
H 	 -0.073717 	 5.268251 	 -2.175463 
H 	 1.085687 	 5.505052 	 -3.275346 
H 	 -2.623348 	 -0.618673 	 -4.209781 
H 	 -2.651018 	 0.103503 	 -2.886882 
H 	 1.355367 	 3.085739 	 -2.482916 
H 	 1.080666 	 1.499135 	 -2.732026 
H 	 -7.322231 	 -6.495352 	 -4.751447 
H 	 6.265333 	 -5.799569 	 -5.249982 
H 	 -5.899417 	 -1.443704 	 7.177741 
H 	 -5.946932 	 -1.962755 	 -6.178564 
H 	 1.214823 	 -7.246591 	 5.515070 
H 	 1.191231 	 -6.506388 	 6.917415 
H 	 0.584209 	 -2.827381 	 2.851609 
H 	 -0.290995 	 -1.818561 	 2.045926 
H 	 -1.282520 	 0.604419 	 1.059317 
H 	 -2.208571 	 -0.254627 	 2.002639 
H 	 1.182502 	 -0.697349 	 -3.582947 
H 	 -0.384796 	 -0.417796 	 -3.818340 
H 	 7.000977 	 0.776189 	 -1.081317 
H 	 7.406118 	 0.914032 	 0.416859 
H 	 -7.163937 	 6.186968 	 -3.405196 
H 	 7.168077 	 6.909337 	 -2.243914 
H 	 3.924057 	 -2.281800 	 1.889636 
H 	 4.847358 	 -3.014750 	 0.907905 
H 	 6.932131 	 5.865996 	 4.367151 
H 	 6.573881 	 7.331753 	 4.291303 
H 	 5.930635 	 -3.992207 	 -1.928192 
H 	 5.110828 	 -4.738937 	 -3.028107 
H 	 -7.274478 	 3.207373 	 -0.532234 
H 	 -6.553062 	 3.618093 	 0.778363 
H 	 -5.590702 	 -6.734993 	 7.252710 
H 	 -6.918758 	 -6.094509 	 -7.246121 
H 	 4.386920 	 -6.769179 	 -5.255575 
H 	 3.574434 	 -5.388576 	 -5.467227 
H 	 -5.058374 	 7.448422 	 -3.489722 
H 	 -5.052132 	 -7.025445 	 -5.024793 
H 	 0.130872 	 -5.539828 	 -2.414910 
H 	 1.166359 	 -6.594407 	 -2.750982 
H 	 1.040351 	 5.333670 	 3.862829 
H 	 0.440885 	 5.630690 	 2.506758 
H 	 4.293828 	 3.783031 	 1.411512 
H 	 3.862277 	 2.460862 	 0.645195 
H 	 -0.440524 	 0.903971 	 -1.044863 
H 	 0.659669 	 0.529236 	 -0.057248 
H 	 4.188647 	 6.296299 	 4.757381 
H 	 4.876113 	 4.923061 	 5.032739 
H 	 -4.771401 	 1.217247 	 5.512266 
H 	 -4.254080 	 0.958205 	 6.864937 
H 	 6.850708 	 -2.610933 	 0.988678 
H 	 6.496176 	 -1.901811 	 -0.415668 
H 	 -0.158411 	 3.448347 	 2.222158 
H 	 -0.733204 	 3.791991 	 0.789388 
H 	 2.296221 	 -5.063066 	 -3.889377 
H 	 1.203950 	 -3.950841 	 -4.457587 
H 	 -5.765327 	 -0.430571 	 -0.254636 
H 	 -4.533511 	 -1.117292 	 0.052107 
H 	 -3.632263 	 1.162399 	 0.875503 
H 	 -4.974575 	 1.555802 	 0.296882 
H 	 0.167424 	 6.873647 	 -4.855544 
H 	 -1.375514 	 6.591094 	 -6.388605 
H 	 -5.412339 	 4.196732 	 -5.387452 
H 	 -4.583597 	 5.091816 	 -6.376149 
H 	 -2.816445 	 -3.379510 	 -7.384242 
H 	 -4.302289 	 -3.249994 	 7.423149 
H 	 3.074785 	 0.495280 	 0.236229 
H 	 2.545817 	 1.551232 	 -0.841136 
H 	 4.290425 	 5.483612 	 -4.370375 
H 	 5.335277 	 6.358475 	 -3.711170 
H 	 2.733061 	 2.580441 	 -4.981397 
H 	 1.673739 	 1.408013 	 -4.955895 
H 	 1.093288 	 7.372770 	 0.438002 
H 	 0.674420 	 -6.220723 	 -0.229635 
H 	 4.647174 	 -0.056735 	 2.590074 
H 	 3.746247 	 -0.971527 	 3.495698 
H 	 -7.136971 	 -4.514799 	 -2.376409 
H 	 -5.610260 	 -5.156420 	 -2.098523 
H 	 2.887830 	 -1.855686 	 -2.258413 
H 	 3.191310 	 -1.070236 	 -3.529029 
H 	 2.717040 	 -4.314332 	 -1.588019 
H 	 2.997482 	 -3.281257 	 -0.451915 
H 	 1.455139 	 5.347052 	 -0.893396 
H 	 1.219823 	 5.127519 	 0.605071 
H 	 -1.114482 	 1.722407 	 6.820615 
H 	 -1.314341 	 0.541356 	 5.992686 
H 	 2.586418 	 4.187092 	 5.131347 
H 	 1.572533 	 3.557011 	 6.041541 
H 	 5.865096 	 -0.381657 	 -2.671852 
H 	 4.908592 	 -0.563107 	 -1.501129 
H 	 -2.327117 	 2.450686 	 -1.302169 
H 	 -2.000918 	 2.461298 	 -2.853128 
H 	 -2.844700 	 -1.994380 	 -2.016221 
H 	 -2.893559 	 -2.740234 	 -0.661921 
H 	 -1.921783 	 5.335955 	 6.496518 
H 	 -0.469028 	 4.911153 	 6.727959 
H 	 -0.303454 	 -1.440863 	 7.240265 
H 	 -0.625687 	 -2.863148 	 6.430803 
H 	 -5.465524 	 5.218854 	 6.328695 
H 	 -6.551186 	 6.419527 	 6.425820 
H 	 -6.544672 	 -0.995581 	 -1.984129 
H 	 -5.383863 	 -1.913439 	 -2.300855 
H 	 -1.454206 	 -6.362597 	 -4.356940 
H 	 -1.522822 	 -4.900385 	 -4.283259 
H 	 -3.619036 	 -0.826343 	 -6.421721 
H 	 -2.806338 	 0.538428 	 -6.169190 
H 	 6.014065 	 2.065245 	 1.647593 
H 	 7.248105 	 1.546553 	 2.395098 
H 	 -3.014704 	 6.721353 	 1.589892 
H 	 -4.431957 	 6.827777 	 2.109886 
H 	 2.441595 	 -4.466679 	 3.815613 
H 	 1.974642 	 -3.933332 	 5.191012 
H 	 -2.856357 	 -6.837026 	 4.950874 
H 	 -3.860617 	 -6.673077 	 6.121199 
H 	 -2.769976 	 -4.194403 	 5.073044 
H 	 -4.251595 	 -4.282680 	 4.511643 
H 	 3.834866 	 5.815089 	 -7.025354 
H 	 2.549151 	 6.547286 	 7.280393 
H 	 3.844791 	 -6.740786 	 -3.188940 
H 	 4.080611 	 -6.287587 	 -1.646302 
H 	 -6.613355 	 1.236371 	 7.318090 
H 	 7.411735 	 0.636323 	 -6.647270 
H 	 -0.299759 	 -5.014753 	 6.658743 
H 	 -0.606806 	 -5.038991 	 5.134175 
H 	 -2.069897 	 4.285466 	 -4.081787 
H 	 -0.610204 	 3.708982 	 -4.096213 
H 	 7.021187 	 5.441433 	 0.191309 
H 	 5.786250 	 5.958511 	 0.952494 
H 	 -3.506880 	 4.733111 	 4.981553 
H 	 -3.817556 	 3.633126 	 6.107331 
H 	 -2.394624 	 -2.564769 	 1.665073 
H 	 -3.105375 	 -2.773968 	 3.031379 
H 	 -6.209574 	 7.580668 	 3.501858 
H 	 -4.724511 	 -6.682949 	 3.541820 
H 	 6.567416 	 5.054060 	 7.478263 
H 	 5.597845 	 3.882325 	 -7.240002 
H 	 2.023873 	 0.042642 	 4.265240 
H 	 1.714503 	 -1.456154 	 4.282361 
H 	 4.636286 	 3.441000 	 -3.692770 
H 	 5.060729 	 3.948277 	 -5.158683 
H 	 5.245152 	 0.989688 	 -5.338336 
H 	 5.437247 	 -0.500685 	 -5.304869 
H 	 6.035739 	 4.447249 	 -2.294328 
H 	 5.029294 	 3.461518 	 -1.512608 
H 	 0.800193 	 -5.361628 	 -5.837032 
H 	 -0.192173 	 -6.539501 	 -6.061518 
H 	 3.399837 	 2.127784 	 -6.601458 
H 	 4.514432 	 1.302261 	 -7.360475 
H 	 4.124027 	 -6.213186 	 3.745763 
H 	 4.857847 	 -5.893735 	 5.087384 
H 	 -2.683334 	 -4.859791 	 1.090795 
H 	 -3.720801 	 -3.925079 	 0.722779 
H 	 -7.067984 	 2.373881 	 -4.276702 
H 	 -7.002649 	 2.648568 	 -5.860230 
H 	 4.817401 	 -5.755488 	 7.160397 
H 	 5.402025 	 -4.272767 	 6.853979 
H 	 1.654258 	 -0.532257 	 6.610856 
H 	 1.483135 	 0.370334 	 -7.121962 
H 	 5.056246 	 1.216303 	 5.037276 
H 	 4.159538 	 2.063407 	 4.129832 
H 	 1.723552 	 4.716292 	 -7.085712 
H 	 1.333335 	 3.275865 	 -6.568364 
H 	 -3.291552 	 3.259045 	 0.372549 
H 	 -2.614822 	 4.631762 	 -0.321630 
H 	 -1.465632 	 1.744118 	 3.028933 
H 	 -1.080831 	 2.151086 	 4.508469 
H 	 -1.919325 	 -5.842702 	 3.048977 
H 	 -1.079664 	 -6.397433 	 1.803145 
H 	 -2.381325 	 -1.434056 	 6.033000 
H 	 -2.867464 	 -0.936875 	 4.602689 
H 	 -1.074835 	 7.091908 	 5.431792 
H 	 -0.589483 	 7.253606 	 4.021616 
H 	 -3.570988 	 2.741589 	 -6.314599 
H 	 -2.210399 	 2.441287 	 -5.583567 
H 	 1.732029 	 7.065641 	 -5.261455 
H 	 -2.233599 	 6.112914 	 -2.069204 
H 	 -5.459471 	 -1.149403 	 4.818092 
H 	 -5.928772 	 -2.686326 	 4.853578 
H 	 5.271016 	 -1.484515 	 6.393443 
H 	 4.120595 	 -0.812258 	 5.515462 
H 	 3.235124 	 5.832400 	 2.419847 
H 	 3.263687 	 5.824086 	 0.793563 
H 	 -0.503108 	 -2.654003 	 -3.500323 
H 	 -0.424707 	 -2.238959 	 -5.076085 
H 	 -1.742205 	 7.019341 	 -0.836425 
O 	 -7.029242 	 -2.704466 	 -5.055827 
O 	 4.833094 	 -6.402190 	 -0.131872 
O 	 -5.246539 	 -3.540200 	 1.548858 
O 	 5.792005 	 -2.731620 	 -7.103035 
O 	 -6.164409 	 -4.409634 	 4.842990 
O 	 6.822639 	 -5.088421 	 2.799985 
O 	 -3.799374 	 -6.902959 	 -6.578772 
O 	 -6.061709 	 3.459557 	 2.767107 
O 	 -3.886755 	 -5.441965 	 -1.898429 
O 	 -4.848630 	 1.173321 	 3.633962 
O 	 3.382626 	 -2.112553 	 -5.595682 
O 	 -3.398441 	 4.283926 	 3.371984 
O 	 2.305453 	 1.530006 	 3.457757 
O 	 6.920283 	 4.174836 	 4.786305 
O 	 -0.130118 	 -2.453879 	 -1.604654 
O 	 6.756493 	 -2.351089 	 2.967326 
O 	 2.768421 	 -5.545258 	 2.210146 
O 	 -5.487064 	 6.665199 	 -1.152531 
O 	 -2.703277 	 5.697422 	 -3.677253 
O 	 0.766712 	 4.875973 	 -2.509998 
O 	 -2.275900 	 -0.682925 	 -3.301898 
O 	 1.751220 	 2.181145 	 -2.382062 
O 	 7.233319 	 -5.696263 	 -5.325359 
O 	 -5.351915 	 -1.630203 	 -6.921206 
O 	 1.818487 	 -6.917383 	 6.221125 
O 	 0.611668 	 -2.010604 	 2.362716 
O 	 -2.004405 	 0.635683 	 1.695262 
O 	 0.505499 	 -0.395818 	 -4.214145 
O 	 -7.095898 	 0.947000 	 -0.543139 
O 	 6.861116 	 6.317934 	 -2.967966 
O 	 3.948042 	 -3.107624 	 1.274833 
O 	 7.252386 	 6.740519 	 4.037454 
O 	 5.755482 	 -4.013227 	 -2.883690 
O 	 -6.803728 	 3.950388 	 -0.090942 
O 	 -6.451921 	 -6.452576 	 6.888988 
O 	 4.308183 	 -5.922692 	 -5.793268 
O 	 -5.587426 	 -7.164642 	 -4.223163 
O 	 1.082495 	 -5.761826 	 -2.203674 
O 	 0.626118 	 6.038128 	 3.371728 
O 	 4.601074 	 3.096681 	 0.795070 
O 	 -0.179324 	 0.168496 	 -0.389141 
O 	 3.982345 	 5.306953 	 4.864305 
O 	 -4.758058 	 1.662399 	 6.365432 
O 	 6.428483 	 -2.736535 	 0.100648 
O 	 0.103290 	 3.840165 	 1.372651 
O 	 2.028185 	 -4.497526 	 -4.656010 
O 	 -5.306159 	 -0.809196 	 0.504135 
O 	 -4.171836 	 1.941774 	 0.734862 
O 	 -1.438878 	 7.024101 	 -5.503487 
O 	 -4.530034 	 4.404337 	 -5.671940 
O 	 -3.623955 	 -3.930496 	 -7.352315 
O 	 2.483170 	 1.240454 	 0.110215 
O 	 4.491703 	 6.463281 	 -4.211687 
O 	 2.041169 	 2.137243 	 -5.448286 
O 	 0.581835 	 -6.697362 	 0.591916 
O 	 4.467186 	 -0.997412 	 2.892297 
O 	 -6.531572 	 -5.017189 	 -1.750931 
O 	 2.698109 	 -1.004470 	 -2.701554 
O 	 2.692656 	 -3.360298 	 -1.355592 
O 	 1.675952 	 5.725353 	 0.006170 
O 	 -0.677757 	 1.291333 	 6.058019 
O 	 1.766338 	 3.575798 	 5.081991 
O 	 5.844367 	 -0.654530 	 -1.707183 
O 	 -1.871656 	 1.960579 	 -2.012922 
O 	 -3.404273 	 -2.120509 	 -1.202328 
O 	 -0.995742 	 5.674380 	 6.460273 
O 	 -0.921206 	 -1.947302 	 6.685060 
O 	 -6.377481 	 5.479742 	 6.596979 
O 	 -6.206719 	 -1.534936 	 -2.681316 
O 	 -1.691499 	 -5.663053 	 -3.721840 
O 	 -2.739679 	 -0.463922 	 -6.151548 
O 	 6.570435 	 1.230326 	 1.819331 
O 	 -3.861470 	 6.281708 	 1.488980 
O 	 2.437613 	 -3.706438 	 4.393438 
O 	 -3.790633 	 -6.744468 	 5.169341 
O 	 -3.293529 	 -4.179025 	 4.245372 
O 	 2.845247 	 6.015445 	 -6.860338 
O 	 3.906382 	 -5.940477 	 -2.598914 
O 	 7.394444 	 1.395070 	 -7.201884 
O 	 -0.361202 	 -4.433545 	 5.865866 
O 	 -1.523376 	 3.489313 	 -4.329145 
O 	 6.475829 	 6.255268 	 0.312803 
O 	 -3.704645 	 4.613699 	 5.971863 
O 	 -2.534132 	 -2.172356 	 2.508998 
O 	 -5.413984 	 -7.046340 	 2.982788 
O 	 5.729822 	 4.824490 	 -7.014142 
O 	 2.307466 	 -0.816740 	 4.739672 
O 	 4.306886 	 3.770261 	 -4.567646 
O 	 5.559759 	 0.280511 	 -4.746547 
O 	 5.692443 	 3.533743 	 -2.268326 
O 	 0.155159 	 -5.709892 	 -6.458706 
O 	 4.341635 	 2.089925 	 -6.798325 
O 	 4.838715 	 -6.551014 	 4.325170 
O 	 -2.912407 	 -4.253387 	 0.364839 
O 	 -6.789129 	 3.029502 	 -4.947155 
O 	 5.208021 	 -5.177758 	 6.487289 
O 	 1.546703 	 -0.567708 	 -7.293137 
O 	 5.036683 	 2.086845 	 4.546966 
O 	 1.089198 	 3.962730 	 -7.243131 
O 	 -2.465971 	 3.698080 	 0.085145 
O 	 -1.150835 	 2.527050 	 3.589537 
O 	 -2.011034 	 -6.261895 	 2.159737 
O 	 -3.145781 	 -1.048689 	 5.549994 
O 	 -0.947233 	 -7.101650 	 4.755805 
O 	 -2.721155 	 2.193323 	 -6.407162 
O 	 1.108714 	 6.955432 	 -4.508048 
O 	 -6.222956 	 -1.735962 	 4.857138 
O 	 4.992250 	 -0.658942 	 5.932763 
O 	 3.835770 	 5.765999 	 1.638932 
O 	 -0.369062 	 -2.989552 	 -4.476022 
O 	 -1.815346 	 6.088304 	 -1.155146 
K 	 -6.889746 	 -6.138543 	 0.492901 
