333
conformation = 62
H 	 -7.156579 	 -3.728373 	 -5.129810 
H 	 -6.900867 	 -2.382213 	 -4.144206 
H 	 4.240246 	 -6.662593 	 0.665968 
H 	 5.314016 	 -7.280798 	 -0.163119 
H 	 -5.477711 	 -3.783434 	 2.382148 
H 	 -5.396436 	 -2.595791 	 1.304027 
H 	 4.888123 	 -2.675116 	 -6.661401 
H 	 6.338876 	 -2.931625 	 -6.403641 
H 	 -6.305063 	 -5.029141 	 5.632793 
H 	 -6.813359 	 -4.744394 	 4.178376 
H 	 6.078406 	 -5.577310 	 3.272307 
H 	 6.658271 	 -4.139529 	 2.866898 
H 	 -2.929647 	 -7.225468 	 -6.278153 
H 	 -3.828585 	 -5.997358 	 -6.672702 
H 	 -6.587275 	 3.883812 	 3.457336 
H 	 -5.163164 	 3.666385 	 3.007652 
H 	 -3.125073 	 -5.640557 	 -2.524304 
H 	 -3.420815 	 -5.288791 	 -1.113346 
H 	 -5.253800 	 1.923658 	 3.138215 
H 	 -4.007686 	 1.052077 	 3.129865 
H 	 2.968047 	 -3.037720 	 -5.370872 
H 	 2.807931 	 -1.738897 	 -6.234824 
H 	 -2.602770 	 3.722578 	 3.132330 
H 	 -3.389216 	 4.961293 	 2.645680 
H 	 1.991107 	 1.547052 	 2.540592 
H 	 1.854163 	 2.186782 	 3.969876 
H 	 6.471098 	 3.308888 	 4.897498 
H 	 7.452031 	 4.356948 	 5.583035 
H 	 0.733824 	 -2.735844 	 -1.454404 
H 	 -0.223487 	 -1.500751 	 -1.489010 
H 	 5.952398 	 -2.010447 	 3.364168 
H 	 -7.435775 	 -2.068745 	 3.561260 
H 	 3.291343 	 -4.888283 	 1.811196 
H 	 1.942362 	 -5.761746 	 1.748084 
H 	 -4.648419 	 6.927008 	 -0.706359 
H 	 -5.571073 	 5.684841 	 -0.927694 
H 	 -2.153962 	 6.256837 	 -4.344962 
H 	 -3.595935 	 5.643673 	 -4.061386 
H 	 -0.003878 	 5.277317 	 -2.184398 
H 	 1.149137 	 5.473466 	 -3.159249 
H 	 -2.620907 	 -0.703586 	 -4.233990 
H 	 -2.736765 	 -0.044419 	 -2.729349 
H 	 1.431022 	 3.070057 	 -2.392637 
H 	 1.042735 	 1.591687 	 -2.760266 
H 	 -7.266576 	 -6.434707 	 -4.822114 
H 	 6.265777 	 -5.757217 	 -5.258655 
H 	 -5.885260 	 -1.286261 	 7.277653 
H 	 -5.984075 	 -2.006953 	 -6.231637 
H 	 1.201087 	 7.486258 	 5.610402 
H 	 1.365766 	 -6.585501 	 6.925519 
H 	 0.560917 	 -2.861277 	 2.903889 
H 	 -0.359041 	 -1.898769 	 2.232109 
H 	 -1.250945 	 0.441771 	 0.998017 
H 	 -2.269602 	 -0.291801 	 2.102955 
H 	 1.189742 	 -0.877584 	 -3.679760 
H 	 -0.336745 	 -0.547320 	 -3.678758 
H 	 6.997533 	 0.585439 	 -1.049519 
H 	 7.432151 	 0.911539 	 0.350267 
H 	 -7.211230 	 6.154363 	 -3.499778 
H 	 7.190542 	 6.811804 	 -2.240514 
H 	 3.875023 	 -2.392211 	 1.835241 
H 	 4.876383 	 -3.158675 	 0.843946 
H 	 6.916952 	 5.845318 	 4.383050 
H 	 6.512545 	 7.401241 	 4.252851 
H 	 5.862609 	 -4.012858 	 -1.929796 
H 	 5.019896 	 -4.776843 	 -2.912852 
H 	 -7.220123 	 3.104199 	 -0.490141 
H 	 -6.564551 	 3.576578 	 0.757515 
H 	 -5.563579 	 -6.732898 	 7.252645 
H 	 -6.939909 	 -6.018175 	 -7.269739 
H 	 4.371751 	 -6.754965 	 -5.278578 
H 	 3.655440 	 -5.417143 	 -5.367385 
H 	 -4.983686 	 7.509398 	 -3.441781 
H 	 -5.003573 	 -7.269234 	 -5.040784 
H 	 0.178222 	 -5.437430 	 -2.372899 
H 	 1.163548 	 -6.569672 	 -2.805920 
H 	 1.164712 	 5.305985 	 3.802694 
H 	 0.381004 	 5.708052 	 2.436759 
H 	 4.140914 	 3.593020 	 1.464447 
H 	 3.945740 	 2.251863 	 0.711783 
H 	 -0.513369 	 0.680529 	 -1.050669 
H 	 0.675892 	 0.580741 	 -0.054400 
H 	 4.124136 	 6.174728 	 4.690284 
H 	 4.861974 	 4.871481 	 4.928633 
H 	 -4.891427 	 1.073664 	 5.512470 
H 	 -4.152833 	 1.059838 	 6.896470 
H 	 6.828220 	 -2.614915 	 1.017306 
H 	 6.654023 	 -1.911607 	 -0.299851 
H 	 -0.252924 	 3.333816 	 2.190344 
H 	 -0.704287 	 3.737334 	 0.741932 
H 	 2.183207 	 -5.099771 	 -3.947661 
H 	 1.258454 	 -4.027794 	 -4.323568 
H 	 -5.764704 	 -0.552005 	 -0.275027 
H 	 -4.407009 	 -1.201835 	 0.202387 
H 	 -3.625532 	 1.130974 	 1.032910 
H 	 -4.982024 	 1.664619 	 0.233469 
H 	 0.198065 	 6.849193 	 -4.902147 
H 	 -1.333433 	 6.422030 	 -6.286385 
H 	 -5.446336 	 4.388448 	 -5.270647 
H 	 -4.568709 	 5.034551 	 -6.352984 
H 	 -2.774501 	 -3.482382 	 -7.307664 
H 	 -4.295808 	 -3.198829 	 7.504480 
H 	 3.210146 	 0.484687 	 0.221066 
H 	 2.575671 	 1.328275 	 -0.875650 
H 	 4.295520 	 5.483552 	 -4.353128 
H 	 5.392680 	 6.549314 	 -3.923572 
H 	 2.762786 	 2.518503 	 -4.852586 
H 	 1.761915 	 1.257456 	 -4.940493 
H 	 1.165922 	 7.332665 	 0.474354 
H 	 0.602580 	 -6.373751 	 -0.356972 
H 	 4.608886 	 -0.171561 	 2.517014 
H 	 3.768222 	 -0.991457 	 3.602106 
H 	 -7.111397 	 -4.674325 	 -2.422035 
H 	 -5.660400 	 -5.009047 	 -2.116425 
H 	 2.832007 	 -1.871310 	 -2.144118 
H 	 3.150036 	 -1.247740 	 -3.548205 
H 	 2.984418 	 -4.268037 	 -1.655153 
H 	 3.066616 	 -3.301179 	 -0.422952 
H 	 1.554974 	 5.348171 	 -0.878272 
H 	 1.207313 	 5.031147 	 0.624392 
H 	 -1.168580 	 1.748099 	 6.788261 
H 	 -1.365108 	 0.583481 	 5.989749 
H 	 2.613613 	 4.014300 	 5.039988 
H 	 1.483350 	 3.429353 	 6.036387 
H 	 5.781110 	 -0.309520 	 -2.593256 
H 	 4.857345 	 -0.562330 	 -1.528278 
H 	 -2.177652 	 2.499093 	 -1.258743 
H 	 -1.930179 	 2.479746 	 -2.816533 
H 	 -2.911943 	 -1.826348 	 -1.916269 
H 	 -2.872122 	 -2.972471 	 -0.773429 
H 	 -1.955096 	 5.317240 	 6.466665 
H 	 -0.436159 	 4.916362 	 6.907114 
H 	 -0.293552 	 -1.536426 	 7.257410 
H 	 -0.494679 	 -2.848777 	 6.444885 
H 	 -5.520875 	 5.296815 	 6.204887 
H 	 -6.499012 	 6.444561 	 6.359780 
H 	 -6.636220 	 -1.043483 	 -1.960331 
H 	 -5.317739 	 -1.869730 	 -2.290678 
H 	 -1.336179 	 -6.416688 	 -4.375212 
H 	 -1.467525 	 -4.874350 	 -4.255748 
H 	 -3.652096 	 -0.765930 	 -6.446981 
H 	 -2.849666 	 0.430445 	 -6.091843 
H 	 5.994729 	 1.948303 	 1.510969 
H 	 7.173673 	 1.426369 	 2.544117 
H 	 -2.970628 	 6.716206 	 1.578200 
H 	 -4.436444 	 6.715879 	 2.123915 
H 	 2.364851 	 -4.490372 	 3.738393 
H 	 1.841952 	 -4.055580 	 5.134014 
H 	 -2.875590 	 -6.894346 	 4.865539 
H 	 -3.684678 	 -6.785696 	 6.184859 
H 	 -2.822574 	 -4.008691 	 5.066209 
H 	 -4.243313 	 -4.218043 	 4.520326 
H 	 3.773720 	 5.754539 	 -7.040821 
H 	 2.616467 	 6.616286 	 7.265631 
H 	 4.087823 	 -6.839532 	 -3.080069 
H 	 3.981506 	 -6.237880 	 -1.665015 
H 	 -6.598244 	 1.314215 	 7.398724 
H 	 7.156570 	 0.528001 	 -6.651220 
H 	 -0.217975 	 -5.118384 	 6.629970 
H 	 -0.691151 	 -4.975199 	 5.066892 
H 	 -2.031316 	 4.266807 	 -4.088361 
H 	 -0.546096 	 3.662590 	 -4.122755 
H 	 7.074697 	 5.352695 	 0.221691 
H 	 5.751602 	 5.846437 	 0.779118 
H 	 -3.550507 	 4.712722 	 5.031031 
H 	 -3.695099 	 3.577539 	 6.022727 
H 	 -2.391769 	 -2.498052 	 1.564454 
H 	 -3.134918 	 -2.908059 	 2.883519 
H 	 -6.041910 	 7.372847 	 3.588866 
H 	 -4.775606 	 -6.642883 	 3.562740 
H 	 6.594024 	 5.015361 	 7.356874 
H 	 5.469625 	 3.878944 	 -7.243830 
H 	 2.079748 	 -0.020929 	 4.287557 
H 	 1.769286 	 -1.490388 	 4.360077 
H 	 4.654324 	 3.423320 	 -3.644259 
H 	 5.011805 	 3.778393 	 -5.210880 
H 	 5.250191 	 1.111031 	 -5.248268 
H 	 5.416875 	 -0.424225 	 -5.460321 
H 	 5.986152 	 4.400729 	 -2.277004 
H 	 5.127613 	 3.353121 	 -1.486939 
H 	 0.729929 	 -5.476493 	 -5.739402 
H 	 -0.304522 	 -6.599167 	 -6.210460 
H 	 3.388526 	 2.111512 	 -6.578876 
H 	 4.363157 	 1.208488 	 -7.268296 
H 	 4.075839 	 -6.363001 	 3.789381 
H 	 4.908632 	 -5.905584 	 5.093963 
H 	 -2.559588 	 -4.992038 	 1.057765 
H 	 -3.856840 	 -4.121764 	 0.690211 
H 	 -7.098300 	 2.373132 	 -4.210362 
H 	 -6.972043 	 2.419656 	 -5.762343 
H 	 4.826304 	 -5.829231 	 7.192035 
H 	 5.484423 	 -4.405678 	 6.943553 
H 	 1.470931 	 -0.733458 	 6.576472 
H 	 1.546344 	 0.382348 	 -7.192684 
H 	 5.122199 	 1.176261 	 4.980336 
H 	 4.187316 	 2.055767 	 4.114340 
H 	 1.767930 	 4.592691 	 -6.996419 
H 	 1.251851 	 3.205655 	 -6.576219 
H 	 -3.297201 	 3.277049 	 0.527973 
H 	 -2.716326 	 4.509438 	 -0.246242 
H 	 -1.431045 	 1.683638 	 3.102771 
H 	 -1.006907 	 2.213716 	 4.511554 
H 	 -2.019916 	 -5.784752 	 2.987055 
H 	 -1.110866 	 -6.482637 	 1.782020 
H 	 -2.365723 	 -1.501073 	 6.030757 
H 	 -2.900867 	 -1.008070 	 4.666100 
H 	 -1.054089 	 7.009446 	 5.492076 
H 	 -0.495794 	 7.166069 	 4.106456 
H 	 -3.492583 	 2.674778 	 -6.243648 
H 	 -2.100370 	 2.408705 	 -5.676379 
H 	 1.674282 	 6.755063 	 -5.333479 
H 	 -2.231665 	 6.053395 	 -2.042977 
H 	 -5.377195 	 -1.275049 	 4.828604 
H 	 -5.944375 	 -2.709568 	 4.900771 
H 	 5.230182 	 -1.583550 	 6.318288 
H 	 4.111147 	 -0.912726 	 5.647938 
H 	 3.119361 	 5.892217 	 2.311633 
H 	 3.294191 	 5.811772 	 0.871208 
H 	 -0.387600 	 -2.846087 	 -3.556900 
H 	 -0.288247 	 -2.243211 	 -5.019827 
H 	 -1.907091 	 6.988204 	 -0.922104 
O 	 -7.035563 	 -2.759092 	 -5.061817 
O 	 4.858099 	 -6.435574 	 -0.098298 
O 	 -5.240823 	 -3.567918 	 1.488376 
O 	 5.750858 	 -2.779662 	 -7.145155 
O 	 -6.175172 	 -4.452119 	 4.851266 
O 	 6.819871 	 -5.127450 	 2.793678 
O 	 -3.826192 	 -6.965731 	 -6.558578 
O 	 -6.069385 	 3.391058 	 2.768799 
O 	 -3.905510 	 -5.494695 	 -1.906069 
O 	 -4.855201 	 1.140629 	 3.618021 
O 	 3.371666 	 -2.188297 	 -5.587659 
O 	 -3.404597 	 4.239115 	 3.353665 
O 	 2.327353 	 1.505705 	 3.438083 
O 	 6.931182 	 4.174439 	 4.758356 
O 	 -0.162244 	 -2.467755 	 -1.661416 
O 	 6.744998 	 -2.360801 	 2.957200 
O 	 2.776654 	 -5.601182 	 2.216046 
O 	 -5.460962 	 6.628930 	 -1.170107 
O 	 -2.730688 	 5.656985 	 -3.648972 
O 	 0.803316 	 4.836784 	 -2.502801 
O 	 -2.303747 	 -0.743916 	 -3.283657 
O 	 1.747473 	 2.133998 	 -2.335162 
O 	 7.253691 	 -5.738358 	 -5.322494 
O 	 -5.349418 	 -1.696645 	 -6.901833 
O 	 1.838166 	 -6.972036 	 6.172419 
O 	 0.590503 	 -2.066802 	 2.351081 
O 	 -1.995955 	 0.589704 	 1.687134 
O 	 0.476466 	 -0.408401 	 -4.218616 
O 	 -7.122440 	 0.883131 	 -0.554521 
O 	 6.871611 	 6.283135 	 -3.008905 
O 	 3.969327 	 -3.154065 	 1.251751 
O 	 7.229652 	 6.708614 	 4.043657 
O 	 5.714921 	 -4.071528 	 -2.886925 
O 	 -6.834073 	 3.918246 	 -0.117665 
O 	 -6.406733 	 -6.478104 	 6.889164 
O 	 4.313351 	 -5.967734 	 -5.788619 
O 	 -5.595098 	 -7.210718 	 -4.230776 
O 	 1.082679 	 -5.780474 	 -2.252234 
O 	 0.607021 	 5.987938 	 3.374887 
O 	 4.579182 	 3.014967 	 0.784576 
O 	 -0.133999 	 0.112120 	 -0.360077 
O 	 4.002911 	 5.237946 	 4.860986 
O 	 -4.769262 	 1.563374 	 6.368900 
O 	 6.436023 	 -2.758136 	 0.126999 
O 	 0.038346 	 3.818800 	 1.345032 
O 	 2.024865 	 -4.529250 	 -4.690051 
O 	 -5.304439 	 -0.857168 	 0.538191 
O 	 -4.180723 	 1.912464 	 0.735587 
O 	 -1.455219 	 6.989237 	 -5.502703 
O 	 -4.507990 	 4.367596 	 -5.664288 
O 	 -3.632652 	 -3.949641 	 -7.382200 
O 	 2.485208 	 1.199390 	 0.096435 
O 	 4.426815 	 6.420704 	 -4.222646 
O 	 2.046057 	 2.094007 	 -5.448961 
O 	 0.595065 	 -6.749555 	 0.625834 
O 	 4.484266 	 -1.041742 	 2.866246 
O 	 -6.569308 	 -5.025184 	 -1.750895 
O 	 2.684370 	 -1.038997 	 -2.695988 
O 	 2.670281 	 -3.407480 	 -1.354160 
O 	 1.695357 	 5.692064 	 0.009736 
O 	 -0.672966 	 1.271118 	 6.091218 
O 	 1.763558 	 3.568848 	 5.072726 
O 	 5.810366 	 -0.714458 	 -1.699602 
O 	 -1.878520 	 1.938258 	 -2.009489 
O 	 -3.403345 	 -2.190232 	 -1.158595 
O 	 -0.995810 	 5.611409 	 6.476015 
O 	 -0.922356 	 -2.012250 	 6.679222 
O 	 -6.391484 	 5.486112 	 6.634167 
O 	 -6.188831 	 -1.584598 	 -2.656822 
O 	 -1.644847 	 -5.703998 	 -3.741081 
O 	 -2.725251 	 -0.528930 	 -6.155716 
O 	 6.541475 	 1.194823 	 1.816826 
O 	 -3.814564 	 6.230806 	 1.497710 
O 	 2.396024 	 -3.722323 	 4.400157 
O 	 -3.799637 	 -6.782683 	 5.185835 
O 	 -3.298637 	 -4.235096 	 4.246561 
O 	 2.845914 	 5.962139 	 -6.898718 
O 	 3.881181 	 -5.975099 	 -2.615207 
O 	 7.368600 	 1.354998 	 -7.196023 
O 	 -0.387113 	 -4.472735 	 5.865291 
O 	 -1.477586 	 3.443161 	 -4.316309 
O 	 6.488369 	 6.173035 	 0.257959 
O 	 -3.747836 	 4.559167 	 5.958381 
O 	 -2.521448 	 -2.225892 	 2.513263 
O 	 -5.404019 	 -7.067515 	 2.965051 
O 	 5.750427 	 4.791703 	 -7.004927 
O 	 2.319809 	 -0.816531 	 4.777377 
O 	 4.325890 	 3.725897 	 -4.522947 
O 	 5.529102 	 0.272390 	 -4.761491 
O 	 5.659836 	 3.480026 	 -2.262138 
O 	 0.163659 	 -5.774909 	 -6.490996 
O 	 4.346307 	 2.090568 	 -6.804795 
O 	 4.852394 	 -6.595890 	 4.336904 
O 	 -2.863068 	 -4.313186 	 0.358505 
O 	 -6.809069 	 2.981688 	 -4.937579 
O 	 5.181758 	 -5.201143 	 6.485906 
O 	 1.509719 	 -0.608853 	 -7.333181 
O 	 5.046816 	 2.045565 	 4.572221 
O 	 1.088247 	 3.889764 	 -7.253881 
O 	 -2.463926 	 3.649712 	 0.072572 
O 	 -1.127468 	 2.481847 	 3.584738 
O 	 -2.013694 	 -6.295899 	 2.170789 
O 	 -3.154944 	 -1.086286 	 5.589747 
O 	 -0.962449 	 -7.173987 	 4.776982 
O 	 -2.693752 	 2.127115 	 -6.438116 
O 	 1.125453 	 6.926751 	 -4.542510 
O 	 -6.209578 	 -1.771204 	 4.858678 
O 	 4.987640 	 -0.715234 	 5.969585 
O 	 3.835349 	 5.723299 	 1.638734 
O 	 -0.365029 	 -3.044179 	 -4.483548 
O 	 -1.843286 	 6.062988 	 -1.125770 
K 	 -6.900637 	 -6.188055 	 0.503202 
