333
conformation = 68
H 	 -7.232795 	 -3.785133 	 -5.096921 
H 	 -6.909816 	 -2.466196 	 -4.192024 
H 	 4.175055 	 -6.597765 	 0.661403 
H 	 5.192432 	 7.518996 	 -0.146318 
H 	 -5.639390 	 -3.789519 	 2.369173 
H 	 -5.504184 	 -2.665692 	 1.275710 
H 	 4.722862 	 -2.794045 	 -6.739560 
H 	 6.216202 	 -2.933857 	 -6.353925 
H 	 -6.401864 	 -5.116587 	 5.615046 
H 	 -6.985431 	 -4.705364 	 4.186954 
H 	 5.988893 	 -5.561216 	 3.351896 
H 	 6.497672 	 -4.216131 	 2.906785 
H 	 -2.960856 	 -7.266119 	 -6.305458 
H 	 -3.937535 	 -6.033454 	 -6.645396 
H 	 -6.728770 	 3.866445 	 3.365831 
H 	 -5.230991 	 3.686060 	 2.905576 
H 	 -3.258597 	 -5.737484 	 -2.526527 
H 	 -3.441285 	 -5.420080 	 -1.073330 
H 	 -5.470757 	 1.821175 	 3.209770 
H 	 -4.152947 	 1.024356 	 3.066330 
H 	 2.884677 	 -3.147039 	 -5.394177 
H 	 2.633799 	 -1.876991 	 -6.248972 
H 	 -2.711252 	 3.627454 	 3.148588 
H 	 -3.534854 	 4.860979 	 2.622479 
H 	 1.877117 	 1.492307 	 2.503429 
H 	 1.749213 	 2.157044 	 3.995760 
H 	 6.430361 	 3.264624 	 4.694439 
H 	 7.292945 	 4.324091 	 5.599649 
H 	 0.633229 	 -2.779624 	 -1.409178 
H 	 -0.333174 	 -1.543338 	 -1.527255 
H 	 5.789259 	 -2.052059 	 3.334181 
H 	 7.355701 	 -2.177850 	 3.637268 
H 	 3.245854 	 -4.921387 	 1.833801 
H 	 1.867451 	 -5.845037 	 1.733582 
H 	 -4.720673 	 6.924617 	 -0.765063 
H 	 -5.724279 	 5.676766 	 -0.872529 
H 	 -2.264967 	 6.140992 	 -4.333384 
H 	 -3.735012 	 5.592476 	 -4.090593 
H 	 -0.085444 	 5.239227 	 -2.172724 
H 	 1.120324 	 5.482897 	 -3.168555 
H 	 -2.708760 	 -0.763468 	 -4.194660 
H 	 -2.818152 	 -0.117087 	 -2.739892 
H 	 1.363131 	 3.028992 	 -2.322190 
H 	 0.920503 	 1.613712 	 -2.783190 
H 	 -7.245403 	 -6.496532 	 -4.754206 
H 	 6.208703 	 -5.751631 	 -5.268392 
H 	 -5.946808 	 -1.257060 	 7.347999 
H 	 -6.128109 	 -2.088171 	 -6.237649 
H 	 1.027808 	 7.387339 	 5.686470 
H 	 1.312205 	 -6.631276 	 6.954005 
H 	 0.511792 	 -2.897785 	 2.941090 
H 	 -0.487933 	 -1.962913 	 2.369455 
H 	 -1.424504 	 0.249309 	 1.012432 
H 	 -2.307571 	 -0.306704 	 2.072757 
H 	 1.038358 	 -0.959221 	 -3.749738 
H 	 -0.384313 	 -0.600280 	 -3.621269 
H 	 6.898236 	 0.424820 	 -1.040353 
H 	 7.344702 	 0.885006 	 0.411582 
H 	 -7.317111 	 6.125477 	 -3.622692 
H 	 7.084335 	 6.718768 	 -2.238177 
H 	 3.821114 	 -2.400028 	 1.835526 
H 	 4.778240 	 -3.186254 	 0.835368 
H 	 6.797140 	 5.816967 	 4.363140 
H 	 6.446135 	 7.309393 	 4.184135 
H 	 5.728590 	 -3.982840 	 -1.922536 
H 	 4.899973 	 -4.820308 	 -2.846261 
H 	 -7.275279 	 3.036136 	 -0.528853 
H 	 -6.624669 	 3.621733 	 0.765701 
H 	 -5.613254 	 -6.734068 	 7.331269 
H 	 -6.964090 	 -6.099651 	 -7.305300 
H 	 4.195465 	 -6.894885 	 -5.277296 
H 	 3.599872 	 -5.442067 	 -5.296699 
H 	 -5.111669 	 -7.308036 	 -3.483004 
H 	 -5.069254 	 7.479933 	 -4.977884 
H 	 0.093969 	 -5.421615 	 -2.415273 
H 	 1.036636 	 -6.597844 	 -2.882166 
H 	 1.066146 	 5.234669 	 3.733711 
H 	 0.269674 	 5.662451 	 2.497557 
H 	 4.000170 	 3.481008 	 1.429750 
H 	 3.874260 	 2.173896 	 0.733459 
H 	 -0.694286 	 0.570394 	 -1.061406 
H 	 0.608645 	 0.554384 	 -0.097206 
H 	 4.021369 	 6.153127 	 4.654773 
H 	 4.859434 	 4.795379 	 4.849366 
H 	 -5.010328 	 1.048390 	 5.527270 
H 	 -4.134922 	 1.077543 	 6.904231 
H 	 6.719660 	 -2.648140 	 1.064489 
H 	 6.618657 	 -1.954141 	 -0.282400 
H 	 -0.386194 	 3.301778 	 2.114376 
H 	 -0.889675 	 3.679469 	 0.702041 
H 	 2.064536 	 -5.169901 	 -3.909655 
H 	 1.186903 	 -4.028874 	 -4.324729 
H 	 -5.872996 	 -0.625327 	 -0.212094 
H 	 -4.535792 	 -1.224762 	 0.290856 
H 	 -3.769097 	 1.136333 	 1.042020 
H 	 -5.052422 	 1.634574 	 0.213284 
H 	 0.120867 	 6.830160 	 -4.917995 
H 	 -1.386458 	 6.266855 	 -6.195524 
H 	 -5.437376 	 4.396841 	 -5.255670 
H 	 -4.641164 	 4.992091 	 -6.395913 
H 	 -2.848049 	 -3.584814 	 -7.241656 
H 	 -4.342850 	 -3.229471 	 -7.299832 
H 	 3.054985 	 0.476896 	 0.245671 
H 	 2.379086 	 1.251880 	 -0.913588 
H 	 4.195936 	 5.395794 	 -4.347179 
H 	 5.240423 	 6.565608 	 -4.081572 
H 	 2.584995 	 2.428891 	 -4.828924 
H 	 1.725880 	 1.244081 	 -4.990668 
H 	 1.041058 	 7.277285 	 0.519747 
H 	 0.470871 	 -6.510622 	 -0.257356 
H 	 4.549998 	 -0.166660 	 2.490205 
H 	 3.781471 	 -0.975968 	 3.560774 
H 	 -7.263147 	 -4.763488 	 -2.548488 
H 	 -5.773886 	 -4.939354 	 -2.111574 
H 	 2.663649 	 -1.892879 	 -2.150038 
H 	 3.036360 	 -1.381369 	 -3.501833 
H 	 3.049226 	 -4.220662 	 -1.738586 
H 	 2.982653 	 -3.341340 	 -0.480790 
H 	 1.525660 	 5.324487 	 -0.922376 
H 	 1.146163 	 4.982963 	 0.529455 
H 	 -1.202930 	 1.830202 	 6.775102 
H 	 -1.407342 	 0.521368 	 5.919236 
H 	 2.604120 	 3.926114 	 5.039386 
H 	 1.379590 	 3.408056 	 5.972239 
H 	 5.731557 	 -0.340575 	 -2.607191 
H 	 4.747566 	 -0.663145 	 -1.478997 
H 	 -2.144165 	 2.546857 	 -1.274147 
H 	 -1.931100 	 2.493321 	 -2.798344 
H 	 -3.021907 	 -1.761625 	 -1.850282 
H 	 -2.989935 	 -3.047554 	 -0.927383 
H 	 -2.006419 	 5.219987 	 6.456945 
H 	 -0.543509 	 4.931128 	 7.001710 
H 	 -0.405365 	 -1.596497 	 7.278957 
H 	 -0.512456 	 -2.890126 	 6.416433 
H 	 -5.653143 	 5.262722 	 6.185589 
H 	 -6.616148 	 6.393073 	 6.360490 
H 	 -6.759505 	 -1.144537 	 -1.995390 
H 	 -5.397382 	 -1.865992 	 -2.260997 
H 	 -1.432675 	 -6.459002 	 -4.345368 
H 	 -1.544091 	 -4.889262 	 -4.175659 
H 	 -3.716142 	 -0.839434 	 -6.440364 
H 	 -2.892650 	 0.405149 	 -6.066262 
H 	 5.908400 	 1.950030 	 1.510852 
H 	 6.930723 	 1.387859 	 2.593905 
H 	 -3.077480 	 6.734814 	 1.573630 
H 	 -4.514733 	 6.651850 	 2.080996 
H 	 2.256096 	 -4.444333 	 3.745256 
H 	 1.681499 	 -4.162180 	 5.061417 
H 	 -2.997573 	 -6.947817 	 4.830299 
H 	 -3.670996 	 -6.880662 	 6.130927 
H 	 -2.992748 	 -3.900077 	 5.066794 
H 	 -4.331019 	 -4.283342 	 4.563483 
H 	 3.736706 	 5.672633 	 -7.042227 
H 	 2.589457 	 6.598564 	 7.297185 
H 	 4.099673 	 -6.879274 	 -3.002512 
H 	 3.880158 	 -6.209835 	 -1.625978 
H 	 -6.700542 	 1.318751 	 7.424749 
H 	 6.953453 	 0.551467 	 -6.744319 
H 	 -0.296516 	 -5.172305 	 6.547405 
H 	 -0.798285 	 -5.021656 	 5.110287 
H 	 -2.047683 	 4.238298 	 -4.105321 
H 	 -0.612011 	 3.640996 	 -4.138645 
H 	 7.011888 	 5.328126 	 0.173043 
H 	 5.609583 	 5.778861 	 0.718798 
H 	 -3.664472 	 4.647366 	 4.972140 
H 	 -3.757487 	 3.529680 	 5.987039 
H 	 -2.540578 	 -2.496930 	 1.579638 
H 	 -3.164176 	 -3.015215 	 2.819206 
H 	 -6.007270 	 7.252665 	 3.578466 
H 	 -4.944682 	 -6.641194 	 3.644085 
H 	 6.435250 	 4.913191 	 7.380194 
H 	 5.339445 	 3.883042 	 -7.288644 
H 	 2.054587 	 0.022173 	 4.290566 
H 	 1.752487 	 -1.608155 	 4.411998 
H 	 4.734724 	 3.431407 	 -3.656203 
H 	 4.947175 	 3.583523 	 -5.163370 
H 	 5.166696 	 1.113969 	 -5.134160 
H 	 5.303225 	 -0.386735 	 -5.477036 
H 	 5.850107 	 4.361498 	 -2.225580 
H 	 5.098197 	 3.326400 	 -1.353143 
H 	 0.584911 	 -5.602933 	 -5.727493 
H 	 -0.492783 	 -6.606663 	 -6.290104 
H 	 3.326445 	 2.107184 	 -6.528084 
H 	 4.257420 	 1.203316 	 -7.255890 
H 	 3.955052 	 -6.480255 	 3.826401 
H 	 4.833918 	 -5.963963 	 5.097570 
H 	 -2.540303 	 -5.051144 	 0.952124 
H 	 -3.820191 	 -4.290169 	 0.615340 
H 	 -7.195704 	 2.390553 	 -4.178243 
H 	 -7.070599 	 2.292031 	 -5.689634 
H 	 4.764237 	 -5.777706 	 7.217947 
H 	 5.438320 	 -4.475797 	 7.035832 
H 	 1.337963 	 -0.838020 	 6.580208 
H 	 1.462160 	 0.281926 	 -7.249210 
H 	 5.091954 	 1.090254 	 4.966297 
H 	 4.117532 	 2.019322 	 4.109644 
H 	 1.684839 	 4.504728 	 -7.006113 
H 	 1.063395 	 3.118393 	 -6.566164 
H 	 -3.304749 	 3.226052 	 0.558582 
H 	 -2.849143 	 4.536342 	 -0.220505 
H 	 -1.498157 	 1.599612 	 3.115362 
H 	 -1.000630 	 2.236196 	 4.531368 
H 	 -2.094146 	 -5.773183 	 2.984894 
H 	 -1.179349 	 -6.493162 	 1.858955 
H 	 -2.459653 	 -1.536335 	 6.005716 
H 	 -2.984123 	 -1.104459 	 4.662800 
H 	 -1.099829 	 7.002694 	 5.526154 
H 	 -0.534978 	 7.130227 	 4.154371 
H 	 -3.549300 	 2.654355 	 -6.228575 
H 	 -2.117385 	 2.408424 	 -5.768366 
H 	 1.580598 	 6.513627 	 -5.318969 
H 	 -2.358050 	 5.942423 	 -2.030209 
H 	 -5.407778 	 -1.383371 	 4.816945 
H 	 -6.080675 	 -2.777887 	 4.991283 
H 	 5.223438 	 -1.646469 	 6.311115 
H 	 3.949176 	 -0.969765 	 5.728247 
H 	 3.054388 	 5.911715 	 2.286748 
H 	 3.165870 	 5.752928 	 0.793674 
H 	 -0.415207 	 -2.845322 	 -3.488192 
H 	 -0.281451 	 -2.218634 	 -4.886400 
H 	 -2.086267 	 7.003723 	 -0.928038 
O 	 -7.129701 	 -2.807349 	 -5.071966 
O 	 4.778670 	 -6.478534 	 -0.067879 
O 	 -5.325851 	 -3.601605 	 1.441179 
O 	 5.628617 	 -2.830051 	 -7.170384 
O 	 -6.266979 	 -4.495594 	 4.855966 
O 	 6.733038 	 -5.164533 	 2.790267 
O 	 -3.940776 	 -7.020146 	 -6.550443 
O 	 -6.163490 	 3.336309 	 2.773960 
O 	 -3.998559 	 -5.553636 	 -1.917331 
O 	 -4.944198 	 1.100137 	 3.604734 
O 	 3.283344 	 -2.250563 	 -5.581993 
O 	 -3.495345 	 4.199970 	 3.331899 
O 	 2.254459 	 1.471902 	 3.425531 
O 	 6.849080 	 4.148942 	 4.747645 
O 	 -0.277863 	 -2.497020 	 -1.703796 
O 	 6.658201 	 -2.388541 	 2.952049 
O 	 2.696289 	 -5.658693 	 2.224699 
O 	 -5.533362 	 6.587670 	 -1.181843 
O 	 -2.827154 	 5.624757 	 -3.633015 
O 	 0.738100 	 4.795883 	 -2.495218 
O 	 -2.412385 	 -0.801183 	 -3.269935 
O 	 1.659357 	 2.087303 	 -2.305244 
O 	 7.172871 	 -5.771076 	 -5.330465 
O 	 -5.434496 	 -1.751699 	 -6.892766 
O 	 1.772236 	 -7.027048 	 6.140041 
O 	 0.486745 	 -2.120741 	 2.345429 
O 	 -2.079226 	 0.539287 	 1.686798 
O 	 0.371108 	 -0.429738 	 -4.217797 
O 	 -7.225730 	 0.827682 	 -0.569506 
O 	 6.794230 	 6.243199 	 -3.030683 
O 	 3.889510 	 -3.215869 	 1.226129 
O 	 7.123873 	 6.683102 	 4.048746 
O 	 5.602227 	 -4.124570 	 -2.887017 
O 	 -6.941828 	 3.875878 	 -0.130258 
O 	 -6.474388 	 -6.503978 	 6.888547 
O 	 4.234288 	 -6.010992 	 -5.788125 
O 	 -5.682157 	 -7.265493 	 -4.234472 
O 	 0.992135 	 -5.808233 	 -2.277419 
O 	 0.510591 	 5.942590 	 3.372322 
O 	 4.476317 	 2.941659 	 0.781424 
O 	 -0.194255 	 0.062356 	 -0.337546 
O 	 3.921084 	 5.175332 	 4.858544 
O 	 -4.871025 	 1.480695 	 6.372841 
O 	 6.356671 	 -2.789692 	 0.148919 
O 	 -0.087277 	 3.787357 	 1.333348 
O 	 1.929987 	 -4.565431 	 -4.710949 
O 	 -5.379507 	 -0.911788 	 0.560117 
O 	 -4.278889 	 1.879396 	 0.740782 
O 	 -1.553227 	 6.950655 	 -5.502279 
O 	 -4.588961 	 4.331953 	 -5.653061 
O 	 -3.727807 	 -3.975702 	 7.495349 
O 	 2.414717 	 1.145181 	 0.089013 
O 	 4.301074 	 6.394551 	 -4.225920 
O 	 1.963238 	 2.043975 	 -5.436238 
O 	 0.517331 	 -6.795645 	 0.636596 
O 	 4.393139 	 -1.091933 	 2.857370 
O 	 -6.680519 	 -5.047481 	 -1.749539 
O 	 2.594029 	 -1.079484 	 -2.692336 
O 	 2.569382 	 -3.453638 	 -1.340085 
O 	 1.617977 	 5.649827 	 0.021441 
O 	 -0.772367 	 1.241271 	 6.120396 
O 	 1.666441 	 3.543582 	 5.062964 
O 	 5.688188 	 -0.759110 	 -1.702020 
O 	 -1.972985 	 1.899639 	 -2.001850 
O 	 -3.491093 	 -2.253894 	 -1.126347 
O 	 -1.089259 	 5.553626 	 6.492490 
O 	 -1.010102 	 -2.069983 	 6.678657 
O 	 -6.485195 	 5.479009 	 6.655376 
O 	 -6.264395 	 -1.631070 	 -2.639119 
O 	 -1.695946 	 -5.744508 	 -3.758469 
O 	 -2.812612 	 -0.590495 	 -6.154431 
O 	 6.436641 	 1.146688 	 1.815027 
O 	 -3.869782 	 6.179893 	 1.505873 
O 	 2.274313 	 -3.753494 	 4.403231 
O 	 -3.890464 	 -6.829637 	 5.204175 
O 	 -3.388810 	 -4.283407 	 4.243378 
O 	 2.749855 	 5.915744 	 -6.927704 
O 	 3.773375 	 -6.024444 	 -2.631235 
O 	 7.264856 	 1.307875 	 -7.186991 
O 	 -0.489984 	 -4.515209 	 5.866078 
O 	 -1.535391 	 3.392719 	 -4.307467 
O 	 6.408943 	 6.096845 	 0.222971 
O 	 -3.864003 	 4.508524 	 5.958314 
O 	 -2.598819 	 -2.272622 	 2.508579 
O 	 -5.486842 	 -7.099730 	 2.952152 
O 	 5.676091 	 4.754190 	 -7.001376 
O 	 2.234442 	 -0.835695 	 4.803427 
O 	 4.234594 	 3.680881 	 -4.496875 
O 	 5.420249 	 0.253903 	 -4.777023 
O 	 5.552162 	 3.423815 	 -2.261383 
O 	 0.081875 	 -5.835970 	 -6.516354 
O 	 4.260187 	 2.065695 	 -6.815253 
O 	 4.771464 	 -6.641370 	 4.342047 
O 	 -2.932461 	 -4.373109 	 0.368345 
O 	 -6.912579 	 2.931588 	 -4.928506 
O 	 5.074678 	 -5.240778 	 6.484991 
O 	 1.396564 	 -0.650317 	 -7.360156 
O 	 4.966368 	 2.004272 	 4.589510 
O 	 0.999928 	 3.827735 	 -7.257730 
O 	 -2.552484 	 3.599208 	 0.068991 
O 	 -1.201890 	 2.438224 	 3.578496 
O 	 -2.108925 	 -6.336147 	 2.168052 
O 	 -3.251803 	 -1.123588 	 5.618421 
O 	 -1.061491 	 -7.242693 	 4.793828 
O 	 -2.761463 	 2.070037 	 -6.454961 
O 	 1.047850 	 6.889338 	 -4.564152 
O 	 -6.288115 	 -1.805381 	 4.859985 
O 	 4.892356 	 -0.767165 	 5.994627 
O 	 3.745555 	 5.679906 	 1.646791 
O 	 -0.451069 	 -3.113571 	 -4.496548 
O 	 -1.948635 	 6.031849 	 -1.111608 
K 	 -6.996673 	 -6.237196 	 0.512616 
