333
conformation = 2
H 	 223.490465 	 -6.491948 	 146.283794 
H 	 224.235990 	 -5.147139 	 146.968763 
H 	 -264.908321 	 -9.089551 	 -348.329762 
H 	 -264.115018 	 -10.288050 	 -348.804354 
H 	 225.945744 	 -6.293253 	 139.066385 
H 	 225.647722 	 -5.610001 	 -347.406759 
H 	 -263.941294 	 -5.470752 	 144.708217 
H 	 222.646164 	 -5.390749 	 145.008478 
H 	 224.714906 	 -7.985593 	 141.831134 
H 	 224.289813 	 -7.571751 	 140.361880 
H 	 222.254194 	 -8.313584 	 139.716473 
H 	 222.749325 	 -7.015784 	 139.093326 
H 	 228.160353 	 -10.043136 	 144.673496 
H 	 227.504156 	 -8.582181 	 144.392556 
H 	 224.272698 	 -13.912311 	 139.745685 
H 	 225.778640 	 -13.924185 	 139.277121 
H 	 227.932232 	 -8.290979 	 148.639271 
H 	 227.512264 	 -7.670923 	 -350.089182 
H 	 225.818261 	 -16.129377 	 139.390575 
H 	 227.066684 	 -17.003891 	 139.679846 
H 	 -265.926239 	 -5.522265 	 145.986520 
H 	 -266.243526 	 -4.363565 	 145.016999 
H 	 228.242622 	 -14.190702 	 139.671951 
H 	 227.747450 	 -12.829874 	 138.980327 
H 	 -266.958110 	 -16.082917 	 138.880590 
H 	 -267.213804 	 -15.443625 	 140.394047 
H 	 222.388965 	 -14.617195 	 141.142068 
H 	 223.420821 	 -13.700545 	 142.072460 
H 	 -268.069059 	 -5.539076 	 -349.898895 
H 	 -269.323313 	 -4.597315 	 -349.863289 
H 	 -263.082009 	 -5.050067 	 139.326207 
H 	 223.377703 	 -4.977681 	 140.022565 
H 	 -265.930760 	 -7.488824 	 -347.059903 
H 	 -267.017813 	 -8.741310 	 -347.139219 
H 	 226.110489 	 -11.330929 	 -349.170486 
H 	 224.827791 	 -11.945135 	 -349.768534 
H 	 228.849377 	 -11.432476 	 146.695422 
H 	 227.458885 	 -12.077828 	 146.817653 
H 	 -269.305749 	 -12.517041 	 -350.967798 
H 	 -268.238486 	 -12.088461 	 147.944063 
H 	 228.366032 	 -3.311595 	 146.832641 
H 	 228.689516 	 -17.527165 	 148.254962 
H 	 -267.907107 	 -14.835811 	 148.592593 
H 	 -267.769244 	 -16.339808 	 148.376147 
H 	 223.721331 	 -8.926694 	 146.482825 
H 	 222.249192 	 -8.548341 	 145.914693 
H 	 225.196629 	 -4.503509 	 143.236846 
H 	 224.969955 	 -4.875453 	 144.699643 
H 	 -267.508582 	 -9.418018 	 141.863539 
H 	 -268.000489 	 -9.356347 	 143.343833 
H 	 -268.027690 	 -5.763477 	 138.757944 
H 	 -269.243392 	 -4.884887 	 138.585067 
H 	 229.567327 	 -17.364277 	 -347.845254 
H 	 228.679545 	 481.868259 	 138.332504 
H 	 -267.875526 	 -3.672695 	 147.594600 
H 	 -269.334927 	 -3.288105 	 147.201976 
H 	 223.360296 	 -16.920622 	 -350.052336 
H 	 223.326492 	 -16.540395 	 -348.544249 
H 	 223.599982 	 -11.295398 	 147.736955 
H 	 223.303558 	 -10.845950 	 -350.829069 
H 	 -265.209747 	 -5.126205 	 -347.098367 
H 	 -264.328583 	 -6.240839 	 -347.817778 
H 	 223.190569 	 -11.985481 	 140.190880 
H 	 222.446595 	 -10.535636 	 140.148084 
H 	 -263.297618 	 -6.479282 	 -350.784867 
H 	 -263.603267 	 -7.424851 	 148.094241 
H 	 224.406452 	 -14.627542 	 -349.122652 
H 	 224.671649 	 -13.830365 	 -347.894136 
H 	 225.050641 	 -9.428956 	 143.958614 
H 	 223.532412 	 -9.044895 	 143.725282 
H 	 -264.849871 	 -9.745805 	 145.608610 
H 	 -265.468666 	 -8.399977 	 145.831514 
H 	 225.757790 	 -9.867101 	 147.902391 
H 	 226.150301 	 -9.883358 	 146.399218 
H 	 -268.923490 	 -8.799358 	 148.640815 
H 	 -267.417103 	 -9.253901 	 -351.237268 
H 	 -268.681800 	 -12.126052 	 140.496352 
H 	 -268.555919 	 -12.453872 	 138.946014 
H 	 -264.505988 	 -13.451994 	 -347.819221 
H 	 -265.162419 	 -14.811554 	 -347.963972 
H 	 230.124702 	 -16.988270 	 -350.050553 
H 	 -268.620782 	 -16.941413 	 -349.014267 
H 	 -265.006966 	 -11.276071 	 141.194582 
H 	 -264.249890 	 -12.610814 	 141.422203 
H 	 226.008300 	 -15.776422 	 141.705409 
H 	 226.695255 	 -16.670508 	 142.744674 
H 	 222.889881 	 -5.390386 	 -348.054798 
H 	 222.369632 	 -4.951719 	 -349.397393 
H 	 -268.740952 	 -14.645463 	 138.605906 
H 	 -269.593300 	 -14.113951 	 -347.667615 
H 	 -266.756566 	 -7.572095 	 147.564680 
H 	 -267.822607 	 -6.780472 	 146.908133 
H 	 224.855060 	 481.848756 	 -348.586280 
H 	 226.236791 	 -3.931136 	 -349.302332 
H 	 227.373604 	 -16.370365 	 -347.586878 
H 	 226.179179 	 -16.468242 	 -348.658566 
H 	 -268.916296 	 -10.789723 	 146.444167 
H 	 229.806769 	 -11.321641 	 144.921310 
H 	 225.831426 	 -13.922548 	 146.093450 
H 	 225.652727 	 -12.831234 	 145.081601 
H 	 228.189309 	 -6.286078 	 143.817783 
H 	 226.744210 	 -6.383726 	 144.395198 
H 	 -266.040485 	 -17.131150 	 -349.130781 
H 	 -266.660170 	 -15.878097 	 -349.367298 
H 	 -264.758942 	 -12.061621 	 146.931197 
H 	 -263.514940 	 -11.237705 	 147.465413 
H 	 -266.395996 	 -15.121966 	 146.247243 
H 	 -267.452632 	 -16.152655 	 146.499834 
H 	 -268.222190 	 -10.380390 	 -348.277056 
H 	 -268.585761 	 -9.255489 	 -349.355705 
H 	 -264.095632 	 482.131176 	 139.369568 
H 	 -265.368541 	 -3.772705 	 139.969850 
H 	 223.997297 	 -7.516617 	 148.718686 
H 	 225.489260 	 -7.875456 	 -350.955511 
H 	 -266.051335 	 -4.804200 	 148.721304 
H 	 -265.872600 	 -3.752816 	 147.522078 
H 	 -266.542639 	 -7.222402 	 -350.057625 
H 	 -265.951524 	 -6.034117 	 -349.217767 
H 	 -267.432155 	 -12.240584 	 -349.783536 
H 	 -267.937179 	 -12.938656 	 -348.472856 
H 	 229.466524 	 -16.259700 	 142.815436 
H 	 230.099222 	 -17.548300 	 142.340816 
H 	 -266.566978 	 -13.533945 	 141.233465 
H 	 -267.456808 	 -14.241563 	 142.359916 
H 	 222.324445 	 -3.720020 	 148.503094 
H 	 -264.046316 	 -3.265149 	 -351.009675 
H 	 228.931091 	 -15.373446 	 -350.119333 
H 	 229.329546 	 -15.387043 	 148.347328 
H 	 228.018645 	 -4.147883 	 -350.778779 
H 	 228.193013 	 -5.397992 	 -349.879663 
H 	 229.085470 	 -12.546369 	 142.504202 
H 	 -269.468834 	 -12.542631 	 143.273618 
H 	 -269.056453 	 -4.336032 	 143.259865 
H 	 230.305319 	 -5.173783 	 142.222672 
H 	 225.584039 	 -12.588251 	 142.408169 
H 	 224.418405 	 -11.651879 	 142.488809 
H 	 224.372067 	 -3.928467 	 -350.745535 
H 	 225.358095 	 -4.993571 	 -351.245180 
H 	 228.953695 	 -9.139333 	 146.794482 
H 	 229.476578 	 -7.627728 	 147.125482 
H 	 227.290510 	 -3.600719 	 144.785388 
H 	 227.969664 	 -17.220211 	 145.112657 
H 	 -263.099721 	 -15.908997 	 -347.057223 
H 	 223.400421 	 -16.092877 	 138.836696 
H 	 227.649508 	 -10.687976 	 -347.453303 
H 	 226.326098 	 -11.047448 	 138.393550 
H 	 -266.521224 	 -7.408471 	 140.036570 
H 	 -266.760629 	 -7.070238 	 141.526681 
H 	 228.115465 	 -10.014753 	 141.249106 
H 	 227.112276 	 -9.764907 	 142.424720 
H 	 228.326391 	 -7.255013 	 141.242850 
H 	 226.999138 	 -7.616149 	 140.590767 
H 	 -265.321137 	 -12.009170 	 144.389913 
H 	 -266.248849 	 -10.931340 	 143.768668 
H 	 -264.604711 	 -9.654715 	 148.146823 
H 	 -264.895296 	 -8.965476 	 -350.504534 
H 	 224.452759 	 -16.004085 	 143.442976 
H 	 223.831201 	 -17.261951 	 144.331984 
H 	 -269.203543 	 -7.493019 	 143.182690 
H 	 -269.477158 	 -8.251659 	 141.778908 
H 	 228.974897 	 -13.452811 	 147.168595 
H 	 230.219353 	 -14.118363 	 146.515772 
H 	 222.950999 	 -12.173724 	 -348.428182 
H 	 -263.167994 	 -11.524514 	 -347.454103 
H 	 227.461384 	 -13.180381 	 141.428310 
H 	 227.416737 	 -14.026890 	 142.674243 
H 	 228.099447 	 -5.579402 	 -346.978015 
H 	 228.686581 	 -5.550595 	 139.494176 
H 	 224.625274 	 -10.370324 	 139.588476 
H 	 225.982856 	 -9.939291 	 140.108877 
H 	 222.521157 	 -12.834775 	 144.595349 
H 	 -263.391879 	 -13.985917 	 143.855716 
H 	 -267.101919 	 482.086994 	 140.419077 
H 	 -267.254826 	 -4.607171 	 140.472246 
H 	 -264.211269 	 -14.150611 	 147.157865 
H 	 -264.423549 	 -13.951446 	 145.605111 
H 	 -263.677380 	 -17.120464 	 145.793097 
H 	 -263.779842 	 -3.659535 	 146.356343 
H 	 222.605526 	 -13.481933 	 -351.088220 
H 	 -263.356920 	 -14.268700 	 -350.100186 
H 	 -268.258311 	 -8.523165 	 145.543088 
H 	 -269.563765 	 -9.161892 	 144.939299 
H 	 -265.485295 	 -16.161051 	 144.385394 
H 	 -264.364910 	 -16.364509 	 143.385337 
H 	 -265.046661 	 -9.176005 	 139.913234 
H 	 -264.325728 	 -8.899632 	 141.338821 
H 	 228.332085 	 -7.796608 	 -348.063849 
H 	 226.959300 	 -7.056506 	 -347.860943 
H 	 224.272634 	 -15.318448 	 146.873503 
H 	 223.953340 	 -15.341149 	 145.379152 
H 	 -264.085662 	 -8.202671 	 143.729762 
H 	 -263.291153 	 -7.234502 	 142.864230 
H 	 -266.912798 	 481.925034 	 143.185915 
H 	 -267.632575 	 -17.615259 	 144.615172 
H 	 -263.863613 	 -16.657877 	 141.045350 
H 	 -264.968355 	 -15.744456 	 140.420113 
H 	 -267.293549 	 -12.971024 	 144.280651 
H 	 -267.902593 	 -14.353063 	 144.579912 
H 	 227.767787 	 -14.286366 	 -348.289979 
H 	 228.524429 	 -13.103409 	 -348.991229 
H 	 229.453941 	 -16.003074 	 139.273813 
H 	 229.901161 	 -15.565677 	 140.687812 
H 	 228.916350 	 -8.907960 	 139.226276 
H 	 229.998220 	 -9.266927 	 -347.029533 
H 	 228.448631 	 -4.043168 	 142.224179 
H 	 228.239908 	 -3.931802 	 140.737424 
H 	 230.079535 	 -10.587991 	 141.640888 
H 	 -269.324053 	 -10.225321 	 140.288840 
H 	 227.442532 	 -14.872054 	 144.564880 
H 	 228.537823 	 -14.913763 	 145.617632 
H 	 -267.488876 	 -11.383852 	 146.331327 
H 	 228.816824 	 -11.533746 	 -350.963606 
H 	 225.591577 	 -4.235521 	 140.894029 
H 	 224.840334 	 -5.515153 	 141.253221 
H 	 -263.419790 	 -3.616831 	 142.772807 
H 	 -264.474001 	 -4.223540 	 141.926879 
H 	 -265.218089 	 -12.229898 	 138.900952 
H 	 -266.027387 	 -11.908991 	 -347.396850 
H 	 -269.514139 	 -5.546401 	 147.659780 
H 	 230.326622 	 -5.244991 	 146.134053 
H 	 229.702520 	 -10.856344 	 -349.824515 
O 	 223.967628 	 -5.655284 	 146.151841 
O 	 -264.252599 	 -9.356679 	 -349.038896 
O 	 225.581571 	 -6.466384 	 -346.914448 
O 	 -263.074445 	 -5.497019 	 144.268543 
O 	 224.930360 	 -7.401859 	 141.074999 
O 	 222.930866 	 -7.998681 	 139.113117 
O 	 227.296205 	 -9.536408 	 144.553867 
O 	 224.888133 	 -14.193834 	 139.035836 
O 	 227.155087 	 -8.280979 	 -350.711035 
O 	 226.232085 	 -16.735280 	 140.056684 
O 	 -265.526302 	 -4.722679 	 145.597472 
O 	 227.587215 	 -13.429357 	 139.738145 
O 	 -266.841348 	 -16.228576 	 139.820318 
O 	 222.991982 	 -13.834225 	 141.217246 
O 	 -268.993525 	 -5.460678 	 -350.164549 
O 	 222.919756 	 -5.316823 	 139.225865 
O 	 -266.260891 	 -8.326580 	 138.412979 
O 	 225.433474 	 -11.203645 	 -349.862762 
O 	 228.258631 	 -11.986712 	 147.307939 
O 	 -268.507869 	 -12.894709 	 148.588369 
O 	 228.896465 	 -3.386758 	 147.664064 
O 	 -267.245088 	 -15.589185 	 148.593222 
O 	 223.215951 	 -8.548159 	 145.795772 
O 	 225.580138 	 -4.391090 	 144.126902 
O 	 -267.336631 	 -9.736741 	 142.769244 
O 	 -268.271978 	 -4.787741 	 138.666017 
O 	 228.965012 	 -17.197745 	 -347.059005 
O 	 -268.403043 	 482.014893 	 146.979817 
O 	 223.961988 	 -16.604191 	 -349.338428 
O 	 223.050044 	 -11.512682 	 148.530375 
O 	 -265.231612 	 -5.977479 	 -347.544043 
O 	 223.333826 	 -11.029465 	 140.287518 
O 	 -262.958748 	 -6.711566 	 148.324829 
O 	 224.271670 	 -13.717768 	 -348.790115 
O 	 224.347360 	 -9.435172 	 143.261722 
O 	 -264.714516 	 -8.832598 	 145.361737 
O 	 225.375900 	 -10.087114 	 147.009455 
O 	 -268.135552 	 -8.779916 	 -350.801761 
O 	 -268.277457 	 -11.775603 	 139.629385 
O 	 -264.263020 	 -14.423755 	 -348.002746 
O 	 -269.434135 	 -17.444490 	 -349.311650 
O 	 -265.112193 	 -12.208448 	 141.125766 
O 	 226.236707 	 -15.833843 	 142.632580 
O 	 222.444864 	 -5.753979 	 -348.833587 
O 	 -268.703744 	 -14.006938 	 -347.277513 
O 	 -267.019632 	 -7.287047 	 146.663208 
O 	 225.700472 	 -3.736417 	 -348.459420 
O 	 226.691512 	 -15.877289 	 -348.118520 
O 	 229.636217 	 -10.709932 	 145.657212 
O 	 226.394619 	 -13.353381 	 145.446780 
O 	 227.449895 	 -6.910126 	 143.940576 
O 	 -266.610147 	 -16.532611 	 -348.603300 
O 	 -264.399358 	 -11.178098 	 147.011719 
O 	 -267.108918 	 -15.627856 	 145.725391 
O 	 -268.547509 	 -9.431486 	 -348.308037 
O 	 -264.687858 	 -3.707517 	 139.236175 
O 	 224.556951 	 -8.042546 	 -350.673419 
O 	 -266.098403 	 -3.835719 	 148.488554 
O 	 -266.319979 	 -6.274945 	 -350.107716 
O 	 -267.486059 	 -12.105753 	 -348.833620 
O 	 230.235962 	 -16.577911 	 142.250358 
O 	 -267.214917 	 -14.198517 	 141.403421 
O 	 -263.115867 	 -3.409725 	 -350.645880 
O 	 229.123221 	 -15.944106 	 -350.879616 
O 	 227.523660 	 -4.820899 	 -350.284222 
O 	 229.904558 	 -11.983145 	 142.722270 
O 	 230.073977 	 -4.729559 	 143.042663 
O 	 224.693921 	 -12.545387 	 142.808307 
O 	 224.714754 	 -4.336873 	 148.416091 
O 	 229.112876 	 -8.476777 	 147.529282 
O 	 228.152811 	 -3.282696 	 145.118013 
O 	 222.762794 	 -16.512971 	 -346.926489 
O 	 226.961975 	 -11.412399 	 -347.395273 
O 	 -266.410047 	 -6.646224 	 140.674109 
O 	 227.204993 	 -9.672107 	 141.445769 
O 	 227.723305 	 -6.964415 	 140.526440 
O 	 -266.176414 	 -11.623454 	 144.496336 
O 	 -265.131905 	 -8.901852 	 148.491055 
O 	 223.675305 	 -16.365763 	 143.911343 
O 	 -269.276360 	 -7.366881 	 142.200583 
O 	 229.351095 	 -14.334569 	 146.915510 
O 	 222.523876 	 -11.305965 	 -348.213113 
O 	 227.421364 	 -13.092052 	 142.423326 
O 	 228.472154 	 -4.907565 	 138.772762 
O 	 225.477994 	 -9.935447 	 139.279962 
O 	 -263.408622 	 -13.026898 	 144.100189 
O 	 -266.829491 	 -3.817157 	 140.868758 
O 	 -264.893825 	 -13.996424 	 146.475307 
O 	 -263.283185 	 -17.722891 	 146.494042 
O 	 -263.198978 	 -14.150248 	 -351.037145 
O 	 -268.895055 	 -8.454805 	 144.767731 
O 	 -264.502674 	 -15.993687 	 144.265275 
O 	 -264.321458 	 -9.454329 	 140.501569 
O 	 227.809063 	 -6.949024 	 -348.230781 
O 	 224.143906 	 -14.691243 	 146.154186 
O 	 -263.705844 	 -8.121606 	 142.805080 
O 	 -267.291645 	 -3.444442 	 144.040791 
O 	 -264.048735 	 -15.760875 	 140.782785 
O 	 -267.986939 	 -13.620412 	 143.951226 
O 	 228.631318 	 -13.987296 	 -348.708665 
O 	 229.671085 	 -15.197242 	 139.821148 
O 	 229.037932 	 -9.148405 	 138.282906 
O 	 227.794322 	 -3.796824 	 141.574102 
O 	 230.103493 	 -9.815001 	 140.974852 
O 	 228.129823 	 -15.454024 	 144.847368 
O 	 -268.012066 	 -10.855013 	 146.981689 
O 	 224.695574 	 -4.538945 	 141.195887 
O 	 -264.050733 	 -3.343933 	 142.088980 
O 	 -265.125688 	 -11.982277 	 -347.127088 
O 	 -269.500539 	 -5.955939 	 146.803460 
O 	 229.354123 	 -11.720555 	 -350.149983 
K 	 224.145572 	 -8.932310 	 -348.297754 
