333
conformation = 20
H 	 -7.297156 	 -3.743941 	 -4.728254 
H 	 -7.095013 	 -2.332301 	 -4.115596 
H 	 4.061781 	 -6.512956 	 0.588344 
H 	 5.217972 	 -7.304011 	 -0.110100 
H 	 -5.181856 	 -3.601878 	 2.733698 
H 	 -5.629434 	 -2.729198 	 1.557057 
H 	 5.058940 	 -2.685769 	 -6.253076 
H 	 6.624927 	 -2.597509 	 -6.404937 
H 	 -6.308339 	 -5.114400 	 5.621764 
H 	 -6.881605 	 -4.873710 	 4.220746 
H 	 6.075246 	 -5.690113 	 3.383281 
H 	 6.662561 	 -4.188491 	 2.962842 
H 	 -3.004386 	 7.547160 	 -6.215462 
H 	 -3.495216 	 -5.890937 	 -6.607055 
H 	 -6.729079 	 3.522754 	 3.566927 
H 	 -5.382448 	 3.992229 	 3.108580 
H 	 -3.269861 	 -5.447681 	 -2.604502 
H 	 -3.822026 	 -4.718624 	 -1.234688 
H 	 -5.223319 	 1.665829 	 3.104205 
H 	 -3.992427 	 0.882952 	 3.376469 
H 	 2.919369 	 -2.740897 	 -5.123115 
H 	 2.674587 	 -1.449883 	 -6.035683 
H 	 -2.691112 	 3.620224 	 3.446436 
H 	 -3.412948 	 4.819305 	 2.684789 
H 	 1.857044 	 1.701647 	 2.649027 
H 	 1.811281 	 2.242624 	 4.152462 
H 	 6.238267 	 3.245246 	 5.164152 
H 	 7.272824 	 4.304384 	 5.748183 
H 	 0.838424 	 -2.777093 	 -1.279677 
H 	 -0.213004 	 -1.754244 	 -0.859801 
H 	 5.917434 	 -1.925485 	 2.979317 
H 	 7.303255 	 -2.094649 	 3.735695 
H 	 2.818020 	 -4.630041 	 1.763845 
H 	 1.976362 	 -5.898018 	 1.682136 
H 	 -4.881873 	 6.497446 	 -0.369963 
H 	 -5.998432 	 5.661222 	 -0.855479 
H 	 -2.281269 	 6.198820 	 -4.574168 
H 	 -3.646246 	 5.344303 	 -4.111732 
H 	 -0.379797 	 5.056787 	 -2.219731 
H 	 0.755490 	 5.557328 	 -3.260034 
H 	 -2.599059 	 -0.468295 	 -4.289917 
H 	 -2.253358 	 0.238127 	 -2.960435 
H 	 1.009641 	 2.893057 	 -2.469791 
H 	 1.202681 	 1.265591 	 -2.692044 
H 	 7.390460 	 -6.221763 	 -4.519527 
H 	 6.092554 	 -5.802667 	 -5.210527 
H 	 -5.880427 	 -1.938177 	 7.080958 
H 	 -5.924666 	 -2.006137 	 -6.196715 
H 	 1.350378 	 -6.767786 	 5.519969 
H 	 0.931229 	 -6.546203 	 7.045273 
H 	 0.732224 	 -2.900999 	 2.715809 
H 	 -0.262972 	 -1.912941 	 2.034336 
H 	 -1.509286 	 0.563826 	 1.010612 
H 	 -2.320806 	 -0.369790 	 1.998659 
H 	 0.907474 	 -0.840832 	 -3.407186 
H 	 -0.447487 	 -0.310718 	 -4.005678 
H 	 7.179957 	 0.800511 	 -1.204331 
H 	 7.144189 	 1.152759 	 0.325026 
H 	 -7.411166 	 6.362127 	 -3.400630 
H 	 7.086014 	 6.946190 	 -2.119435 
H 	 3.860337 	 -2.299919 	 1.889637 
H 	 4.657197 	 -3.217098 	 0.959409 
H 	 6.981918 	 5.748727 	 3.922409 
H 	 6.307167 	 7.114833 	 4.114076 
H 	 5.652518 	 -3.776239 	 -1.904834 
H 	 5.291065 	 -4.735185 	 -3.060884 
H 	 -7.114337 	 3.084819 	 -0.347337 
H 	 -6.573443 	 3.741205 	 0.917390 
H 	 -5.895173 	 -6.732027 	 7.501407 
H 	 -7.366019 	 -6.404841 	 -7.244718 
H 	 4.068075 	 -6.910393 	 -5.547931 
H 	 3.425335 	 -5.496368 	 -5.595285 
H 	 -5.297451 	 7.536649 	 -3.248175 
H 	 -5.021415 	 -6.866803 	 -4.798077 
H 	 0.068366 	 -5.847566 	 -2.569474 
H 	 1.359523 	 -6.627245 	 -2.485200 
H 	 0.264287 	 5.632132 	 4.192121 
H 	 0.253815 	 5.332438 	 2.691454 
H 	 4.634391 	 4.179875 	 0.937677 
H 	 3.638117 	 2.930604 	 0.816940 
H 	 -0.717860 	 0.989334 	 -1.024619 
H 	 0.486263 	 0.459976 	 -0.206656 
H 	 4.031551 	 6.375879 	 5.034317 
H 	 4.608277 	 4.982596 	 5.227244 
H 	 -4.767619 	 1.739939 	 5.444317 
H 	 -4.463667 	 0.893061 	 6.477063 
H 	 6.743168 	 -2.428315 	 0.823107 
H 	 6.182422 	 -2.198041 	 -0.636473 
H 	 0.134753 	 3.281072 	 2.383833 
H 	 -0.757246 	 3.710440 	 1.156615 
H 	 2.193207 	 -4.655145 	 -3.615866 
H 	 1.067973 	 -4.017585 	 -4.618206 
H 	 -6.164998 	 -0.359160 	 0.232855 
H 	 -5.028426 	 -0.999680 	 -0.438951 
H 	 -3.624917 	 1.197466 	 0.973170 
H 	 -5.003185 	 1.234485 	 0.391119 
H 	 0.049739 	 6.876615 	 -4.812575 
H 	 -1.337757 	 6.521092 	 -6.322776 
H 	 -5.257262 	 3.622288 	 -5.436156 
H 	 -5.175162 	 4.907910 	 -6.244548 
H 	 -2.961787 	 -3.387794 	 -7.350127 
H 	 -4.434564 	 -3.483682 	 -7.073704 
H 	 2.774370 	 0.336047 	 -0.153162 
H 	 2.023058 	 1.683700 	 -0.565388 
H 	 4.018836 	 5.677027 	 -4.255201 
H 	 5.272439 	 6.131009 	 -3.531864 
H 	 2.565049 	 2.574588 	 -4.942492 
H 	 1.337290 	 1.544841 	 -4.802499 
H 	 0.612848 	 7.280621 	 0.363158 
H 	 0.617734 	 -6.213799 	 -0.322078 
H 	 4.825737 	 -0.188833 	 3.131751 
H 	 3.577519 	 -0.906208 	 3.636246 
H 	 -7.004583 	 -4.599275 	 -2.337119 
H 	 -5.578655 	 -5.343249 	 -2.024782 
H 	 2.682314 	 -2.015016 	 -2.604446 
H 	 3.139814 	 -0.877252 	 -3.530446 
H 	 2.173657 	 -4.272355 	 -1.344608 
H 	 2.902046 	 -3.328757 	 -0.364902 
H 	 1.452885 	 5.454197 	 -0.939878 
H 	 0.995497 	 4.882401 	 0.409130 
H 	 -1.252242 	 1.560616 	 6.780886 
H 	 -0.994236 	 0.225038 	 6.162302 
H 	 2.398598 	 4.229472 	 5.170065 
H 	 1.442622 	 3.518942 	 6.079463 
H 	 6.086795 	 -0.957961 	 -2.620918 
H 	 4.845026 	 -0.698433 	 -1.715999 
H 	 -2.258094 	 2.432724 	 -1.345708 
H 	 -1.722814 	 2.390841 	 -2.756890 
H 	 -2.974828 	 -1.672783 	 -2.038033 
H 	 -2.905944 	 -2.591188 	 -0.712870 
H 	 -1.947105 	 5.118798 	 6.287903 
H 	 -0.409839 	 5.069461 	 6.642257 
H 	 -0.194567 	 -1.541930 	 7.117859 
H 	 -0.775942 	 -2.616395 	 6.117421 
H 	 -5.453189 	 5.128692 	 6.380610 
H 	 -6.705659 	 6.164814 	 6.338382 
H 	 -6.646651 	 -1.043981 	 -1.922540 
H 	 -5.740828 	 -2.228117 	 -2.322470 
H 	 -2.157292 	 -6.339928 	 -4.316612 
H 	 -1.608222 	 -4.940872 	 -4.169954 
H 	 -3.685073 	 -0.975403 	 -6.392459 
H 	 -3.016179 	 0.503123 	 -6.223468 
H 	 5.858890 	 1.905944 	 1.848690 
H 	 7.268755 	 1.620442 	 2.444674 
H 	 -3.417211 	 6.988689 	 1.502075 
H 	 -4.768097 	 6.752917 	 2.096590 
H 	 2.486105 	 -4.615403 	 3.869628 
H 	 2.191932 	 -4.034882 	 5.315887 
H 	 -2.917714 	 -6.978442 	 5.159845 
H 	 -4.112845 	 -6.753125 	 6.142304 
H 	 -2.780250 	 -4.481213 	 4.984083 
H 	 -4.157390 	 -4.785856 	 4.280428 
H 	 3.658121 	 5.667835 	 -6.829383 
H 	 2.599003 	 6.698362 	 7.475611 
H 	 3.745666 	 -6.956946 	 -3.019262 
H 	 4.114859 	 -6.243947 	 -1.604497 
H 	 -6.738256 	 1.292255 	 7.088809 
H 	 -7.153934 	 0.546284 	 -6.692668 
H 	 -0.448725 	 -4.713789 	 6.919058 
H 	 -0.340860 	 -5.446931 	 5.518786 
H 	 -2.129488 	 4.306688 	 -4.043273 
H 	 -0.761954 	 3.577264 	 -4.295274 
H 	 6.835736 	 5.519511 	 0.304877 
H 	 5.925475 	 6.112903 	 1.364559 
H 	 -3.777411 	 4.522037 	 5.079960 
H 	 -3.916037 	 3.730599 	 6.526139 
H 	 -2.756456 	 -2.914113 	 1.971969 
H 	 -2.511293 	 -2.480325 	 3.428137 
H 	 -6.369879 	 7.254406 	 3.119765 
H 	 -5.065945 	 -7.211801 	 3.849764 
H 	 6.523302 	 4.970097 	 -6.785058 
H 	 5.592444 	 3.763654 	 -7.190436 
H 	 1.793168 	 -0.151814 	 4.193671 
H 	 1.630865 	 -1.627751 	 4.201620 
H 	 4.632555 	 3.644543 	 -3.795677 
H 	 4.689835 	 3.891550 	 -5.410811 
H 	 5.018533 	 0.545951 	 -5.336914 
H 	 5.241557 	 -0.829301 	 -4.735237 
H 	 6.272733 	 4.299694 	 -2.316220 
H 	 5.288635 	 3.573224 	 -1.321212 
H 	 0.838602 	 -5.525929 	 -5.862158 
H 	 -0.513444 	 -6.248148 	 -5.810962 
H 	 3.434188 	 1.563923 	 -6.669590 
H 	 4.637764 	 1.565852 	 7.188006 
H 	 3.917481 	 -6.313843 	 3.734282 
H 	 4.689015 	 -6.027333 	 5.071192 
H 	 -2.776051 	 -5.033258 	 0.866208 
H 	 -4.012978 	 -4.201124 	 0.949694 
H 	 -6.886193 	 2.250664 	 -4.327632 
H 	 -7.308593 	 2.676167 	 -5.825815 
H 	 4.812602 	 -5.547485 	 7.443690 
H 	 5.344843 	 -4.338349 	 6.492121 
H 	 2.065308 	 -0.243629 	 6.953877 
H 	 1.233218 	 0.218815 	 -6.749225 
H 	 5.033976 	 1.137443 	 4.995947 
H 	 3.989341 	 1.901630 	 4.223240 
H 	 1.653500 	 4.726535 	 -6.969893 
H 	 1.081200 	 3.317840 	 -6.522727 
H 	 -3.388226 	 3.355629 	 0.381016 
H 	 -2.598297 	 4.640514 	 -0.187714 
H 	 -1.575879 	 1.729649 	 2.995342 
H 	 -1.051530 	 2.034019 	 4.420084 
H 	 -2.071008 	 -6.256917 	 3.094788 
H 	 -1.087161 	 -6.371535 	 1.801056 
H 	 -2.583791 	 -1.319591 	 6.058330 
H 	 -2.865218 	 -1.182177 	 4.553273 
H 	 -0.881093 	 7.178570 	 5.454433 
H 	 -0.651627 	 7.410686 	 3.942710 
H 	 -3.590015 	 2.856180 	 -6.657180 
H 	 -2.360541 	 2.779749 	 -5.628988 
H 	 1.707370 	 6.879568 	 -4.895351 
H 	 -2.380071 	 6.269530 	 -2.003807 
H 	 -5.504793 	 -1.325331 	 4.726881 
H 	 -6.201225 	 -2.727848 	 4.961985 
H 	 5.432252 	 -1.044745 	 6.556006 
H 	 4.249655 	 -1.232140 	 5.566931 
H 	 3.666566 	 5.583247 	 2.685000 
H 	 2.884533 	 5.739077 	 1.229665 
H 	 -0.493605 	 -2.562792 	 -3.513454 
H 	 -0.667969 	 -2.460136 	 -5.113973 
H 	 -1.447101 	 6.807332 	 -0.854847 
O 	 -7.118195 	 -2.796171 	 -4.992805 
O 	 4.688371 	 -6.507562 	 -0.186077 
O 	 -5.409217 	 -3.634217 	 1.811707 
O 	 5.807390 	 -2.735645 	 -6.921058 
O 	 -6.175445 	 -4.530302 	 4.843407 
O 	 6.750848 	 -5.161611 	 2.848320 
O 	 -3.803251 	 -6.816877 	 -6.579775 
O 	 -6.143987 	 3.483518 	 2.786879 
O 	 -3.924933 	 -5.469914 	 -1.844985 
O 	 -4.882178 	 1.028948 	 3.773936 
O 	 3.349509 	 -2.003618 	 -5.579460 
O 	 -3.482527 	 4.258865 	 3.474351 
O 	 2.133783 	 1.473107 	 3.549032 
O 	 6.825714 	 3.969894 	 4.937940 
O 	 -0.113816 	 -2.598853 	 -1.396197 
O 	 6.727453 	 -2.482163 	 3.006609 
O 	 2.671102 	 -5.525873 	 2.204006 
O 	 -5.619576 	 6.564849 	 -1.056203 
O 	 -2.781007 	 5.698108 	 -3.755422 
O 	 0.522294 	 4.834429 	 -2.518617 
O 	 -2.267946 	 -0.646524 	 -3.383365 
O 	 1.677422 	 2.135338 	 -2.496843 
O 	 7.090662 	 -5.752154 	 -5.327580 
O 	 -5.472819 	 -1.602018 	 -6.973195 
O 	 1.633463 	 -6.935954 	 6.421678 
O 	 0.610116 	 -2.001196 	 2.424914 
O 	 -2.107765 	 0.559157 	 1.776237 
O 	 0.501093 	 -0.386331 	 -4.165749 
O 	 -7.121923 	 1.009030 	 -0.476408 
O 	 6.808304 	 6.222403 	 -2.732496 
O 	 3.759553 	 -3.158018 	 1.340080 
O 	 7.198836 	 6.702080 	 4.063924 
O 	 5.858608 	 -3.962069 	 -2.828377 
O 	 -6.812686 	 3.932369 	 0.022318 
O 	 -6.667527 	 -6.564080 	 6.969859 
O 	 4.215227 	 -6.005236 	 -5.756013 
O 	 -5.678377 	 -7.236792 	 -4.167811 
O 	 0.884754 	 -5.915666 	 -2.008126 
O 	 0.630272 	 5.953857 	 3.390202 
O 	 4.592091 	 3.199970 	 0.862984 
O 	 -0.421758 	 0.217316 	 -0.431344 
O 	 3.841676 	 5.404968 	 4.894307 
O 	 -4.834691 	 1.785085 	 6.413814 
O 	 6.300447 	 -2.886976 	 0.063738 
O 	 0.177959 	 3.740424 	 1.507585 
O 	 1.921801 	 -4.532437 	 -4.510850 
O 	 -5.365769 	 -0.876720 	 0.436602 
O 	 -4.322001 	 1.851086 	 0.747152 
O 	 -1.478676 	 6.980026 	 -5.467384 
O 	 -4.661747 	 4.352357 	 -5.657270 
O 	 -3.663272 	 -4.061256 	 -7.244794 
O 	 2.373117 	 1.194780 	 0.221940 
O 	 4.532826 	 6.474755 	 -4.140107 
O 	 1.884993 	 2.092078 	 -5.404568 
O 	 0.427499 	 -6.670121 	 0.561812 
O 	 4.284300 	 -0.965101 	 2.981081 
O 	 -6.540226 	 -5.169337 	 -1.760707 
O 	 2.728881 	 -1.048573 	 -2.663813 
O 	 2.628437 	 -3.427461 	 -1.286463 
O 	 1.503007 	 5.630668 	 0.032327 
O 	 -0.824719 	 1.167907 	 6.014528 
O 	 1.707770 	 3.495202 	 5.140304 
O 	 5.808052 	 -0.606682 	 -1.746713 
O 	 -1.964203 	 1.798962 	 -2.002208 
O 	 -3.511005 	 -2.068958 	 -1.321943 
O 	 -1.148398 	 5.684648 	 6.491675 
O 	 -1.025775 	 -1.930507 	 6.767246 
O 	 -6.411353 	 5.245490 	 6.560236 
O 	 -6.336926 	 -1.548636 	 -2.711936 
O 	 -1.905223 	 -5.690987 	 -3.628729 
O 	 -2.880800 	 -0.473843 	 -6.056660 
O 	 6.569091 	 1.185795 	 1.891394 
O 	 -4.069055 	 6.265528 	 1.498483 
O 	 2.460595 	 -3.813739 	 4.425625 
O 	 -3.861785 	 -6.827343 	 5.181600 
O 	 -3.377535 	 -4.174016 	 4.287203 
O 	 2.747095 	 6.031071 	 -6.715230 
O 	 3.832464 	 -6.047216 	 -2.583653 
O 	 7.426330 	 1.350333 	 -7.193456 
O 	 -0.378687 	 -4.530398 	 5.927031 
O 	 -1.729219 	 3.406748 	 -4.281872 
O 	 6.336929 	 6.345738 	 0.537098 
O 	 -3.681297 	 4.600472 	 6.103563 
O 	 -2.637660 	 -2.150816 	 2.534277 
O 	 -5.554339 	 -7.098972 	 3.044435 
O 	 5.560011 	 4.724929 	 -7.016640 
O 	 2.146727 	 -0.969510 	 4.662932 
O 	 4.127634 	 3.717340 	 -4.648559 
O 	 5.588843 	 0.096872 	 -4.668513 
O 	 5.684722 	 3.531354 	 -2.203900 
O 	 0.044171 	 -5.685586 	 -6.379451 
O 	 4.334632 	 1.847452 	 -6.813638 
O 	 4.663850 	 -6.608696 	 4.295399 
O 	 -3.170289 	 -4.202453 	 0.517442 
O 	 -6.879994 	 3.019182 	 -4.958272 
O 	 5.190828 	 -5.275459 	 6.553474 
O 	 1.580509 	 -0.634833 	 -7.152069 
O 	 4.908592 	 2.007330 	 4.538354 
O 	 0.979323 	 4.029833 	 -7.193005 
O 	 -2.499370 	 3.699825 	 0.141497 
O 	 -1.348806 	 2.503406 	 3.612011 
O 	 -2.057365 	 -6.316032 	 2.129709 
O 	 -3.234881 	 -1.049001 	 5.421915 
O 	 -1.004624 	 -7.050143 	 4.740070 
O 	 -2.911334 	 2.229403 	 -6.281654 
O 	 0.950923 	 6.868382 	 -4.285596 
O 	 -6.358565 	 -1.741535 	 4.910018 
O 	 4.887960 	 -0.603053 	 5.869954 
O 	 3.772956 	 5.715462 	 1.684971 
O 	 -0.525392 	 -3.069069 	 -4.376404 
O 	 -1.785231 	 6.000053 	 -1.230555 
K 	 -6.944508 	 -6.151543 	 0.533081 
