333
conformation = 65
H 	 -7.199373 	 -3.733077 	 -5.086482 
H 	 -6.903380 	 -2.389962 	 -4.128982 
H 	 4.212965 	 -6.614843 	 0.702302 
H 	 5.240122 	 -7.295002 	 -0.102652 
H 	 -5.560237 	 -3.769805 	 2.427097 
H 	 -5.443612 	 -2.617645 	 1.334459 
H 	 4.794694 	 -2.714665 	 -6.649090 
H 	 6.274392 	 -2.917089 	 -6.328341 
H 	 -6.355061 	 -5.042725 	 5.666488 
H 	 -6.898224 	 -4.696026 	 4.227309 
H 	 6.014257 	 -5.551231 	 3.371811 
H 	 6.577599 	 -4.160559 	 2.936486 
H 	 -2.943302 	 -7.223625 	 -6.252848 
H 	 -3.888110 	 -5.997619 	 -6.618030 
H 	 -6.649236 	 3.899413 	 3.451868 
H 	 -5.203528 	 3.696737 	 3.004390 
H 	 -3.174964 	 -5.670421 	 -2.475727 
H 	 -3.423778 	 -5.342459 	 -1.059035 
H 	 -5.359366 	 1.899013 	 3.214755 
H 	 -4.071141 	 1.060024 	 3.136819 
H 	 2.930752 	 -3.063276 	 -5.342984 
H 	 2.722212 	 -1.788099 	 -6.199213 
H 	 -2.655811 	 3.700511 	 3.176630 
H 	 -3.459315 	 4.922124 	 2.688096 
H 	 1.932307 	 1.540079 	 2.551283 
H 	 1.797865 	 2.190749 	 4.030380 
H 	 6.459912 	 3.319911 	 4.838216 
H 	 7.366194 	 4.364155 	 5.630137 
H 	 0.677157 	 -2.736538 	 -1.390288 
H 	 -0.284284 	 -1.488155 	 -1.469576 
H 	 5.866127 	 -2.012554 	 3.403411 
H 	 -7.490999 	 -2.104491 	 3.645986 
H 	 3.275530 	 -4.894487 	 1.876464 
H 	 1.926616 	 -5.781082 	 1.808613 
H 	 -4.672352 	 6.962723 	 -0.686806 
H 	 -5.655628 	 5.691536 	 -0.856903 
H 	 -2.200686 	 6.223969 	 -4.294816 
H 	 -3.687039 	 5.645458 	 -4.041980 
H 	 -0.036619 	 5.281152 	 -2.137243 
H 	 1.145824 	 5.515814 	 -3.129779 
H 	 -2.657521 	 -0.715030 	 -4.160469 
H 	 -2.775048 	 -0.075737 	 -2.682383 
H 	 1.394688 	 3.086949 	 -2.314576 
H 	 0.955072 	 1.608574 	 -2.743663 
H 	 -7.241841 	 -6.461470 	 -4.735261 
H 	 6.235308 	 -5.724908 	 -5.222888 
H 	 -5.924076 	 -1.240059 	 7.353352 
H 	 -6.050211 	 -2.018975 	 -6.199861 
H 	 1.118437 	 7.455246 	 5.691638 
H 	 1.334477 	 -6.578867 	 7.001797 
H 	 0.526539 	 -2.833670 	 2.950845 
H 	 -0.425342 	 -1.912243 	 2.348034 
H 	 -1.330745 	 0.366082 	 1.046370 
H 	 -2.291549 	 -0.279139 	 2.137261 
H 	 1.112820 	 -0.903969 	 -3.667977 
H 	 -0.347129 	 -0.558494 	 -3.603120 
H 	 6.955060 	 0.529712 	 -0.997642 
H 	 7.385985 	 0.923347 	 0.431583 
H 	 -7.269576 	 6.158428 	 -3.516239 
H 	 7.137378 	 6.793547 	 -2.185109 
H 	 3.837494 	 -2.358716 	 1.894898 
H 	 4.811349 	 -3.160080 	 0.887910 
H 	 6.856843 	 5.842392 	 4.425212 
H 	 6.492200 	 7.372405 	 4.261789 
H 	 5.790867 	 -3.984094 	 -1.884943 
H 	 4.956409 	 -4.775417 	 -2.828097 
H 	 -7.246611 	 3.091362 	 -0.458001 
H 	 -6.606962 	 3.625543 	 0.774701 
H 	 -5.599553 	 -6.708410 	 7.329226 
H 	 -6.954669 	 -6.027491 	 -7.242750 
H 	 4.287288 	 -6.772246 	 -5.242598 
H 	 3.644133 	 -5.422867 	 -5.294332 
H 	 -5.040305 	 7.568630 	 -3.421158 
H 	 -5.031176 	 7.571297 	 -4.967758 
H 	 0.130988 	 -5.397238 	 -2.342406 
H 	 1.106920 	 -6.567287 	 -2.801260 
H 	 1.103893 	 5.321856 	 3.798509 
H 	 0.324330 	 5.713819 	 2.498833 
H 	 4.065404 	 3.549981 	 1.494480 
H 	 3.907973 	 2.222491 	 0.773811 
H 	 -0.611645 	 0.646946 	 -1.024548 
H 	 0.629311 	 0.582729 	 -0.029698 
H 	 4.070835 	 6.197685 	 4.712468 
H 	 4.838478 	 4.862378 	 4.933556 
H 	 -4.957698 	 1.094654 	 5.585787 
H 	 -4.141439 	 1.095773 	 6.955991 
H 	 6.779085 	 -2.603812 	 1.090032 
H 	 6.644053 	 -1.903832 	 -0.240479 
H 	 -0.324603 	 3.331504 	 2.204829 
H 	 -0.797365 	 3.728168 	 0.758684 
H 	 2.112048 	 -5.100397 	 -3.895700 
H 	 1.230049 	 -4.017978 	 -4.265378 
H 	 -5.813830 	 -0.572281 	 -0.192657 
H 	 -4.485548 	 -1.186064 	 0.306677 
H 	 -3.694132 	 1.163394 	 1.091970 
H 	 -5.033750 	 1.680091 	 0.256705 
H 	 0.178095 	 6.861093 	 -4.864614 
H 	 -1.358646 	 6.363232 	 -6.201365 
H 	 -5.429548 	 4.427053 	 -5.222344 
H 	 -4.607207 	 5.040566 	 -6.328379 
H 	 -2.807107 	 -3.510116 	 -7.230096 
H 	 -4.316848 	 -3.195238 	 -7.305147 
H 	 3.148662 	 0.501879 	 0.276399 
H 	 2.487825 	 1.302380 	 -0.849089 
H 	 4.246291 	 5.490543 	 -4.301863 
H 	 5.335415 	 6.596194 	 -3.955561 
H 	 2.668727 	 2.486494 	 -4.800125 
H 	 1.750344 	 1.272183 	 -4.916755 
H 	 1.117760 	 7.320533 	 0.538803 
H 	 0.536065 	 -6.418434 	 -0.282048 
H 	 4.574848 	 -0.138273 	 2.540637 
H 	 3.785852 	 -0.965624 	 3.616730 
H 	 -7.179369 	 -4.697355 	 -2.441644 
H 	 -5.721787 	 -4.947900 	 -2.073879 
H 	 2.751855 	 -1.859098 	 -2.097695 
H 	 3.087481 	 -1.292502 	 -3.474692 
H 	 3.019854 	 -4.218838 	 -1.645105 
H 	 3.023401 	 -3.300840 	 -0.417003 
H 	 1.543649 	 5.363225 	 -0.840302 
H 	 1.175956 	 5.028319 	 0.628668 
H 	 -1.181049 	 1.803125 	 6.814851 
H 	 -1.386134 	 0.582103 	 5.999575 
H 	 2.618920 	 3.993056 	 5.073661 
H 	 1.425544 	 3.432786 	 6.043611 
H 	 5.751025 	 -0.291739 	 -2.559638 
H 	 4.816992 	 -0.584897 	 -1.465859 
H 	 -2.152620 	 2.531770 	 -1.240137 
H 	 -1.934232 	 2.508751 	 -2.754684 
H 	 -2.971163 	 -1.762119 	 -1.836793 
H 	 -2.922486 	 -3.005999 	 -0.794585 
H 	 -1.995239 	 5.294927 	 6.504882 
H 	 -0.493048 	 4.954630 	 6.997067 
H 	 -0.344874 	 -1.550564 	 7.309314 
H 	 -0.499936 	 -2.836279 	 6.481991 
H 	 -5.601985 	 5.317563 	 6.239685 
H 	 -6.547135 	 6.444637 	 6.397694 
H 	 -6.690561 	 -1.079058 	 -1.945719 
H 	 -5.348257 	 -1.846462 	 -2.232703 
H 	 -1.377343 	 -6.419542 	 -4.314940 
H 	 -1.507359 	 -4.868901 	 -4.162921 
H 	 -3.698676 	 -0.772545 	 -6.404583 
H 	 -2.878144 	 0.423766 	 -6.032297 
H 	 5.939708 	 1.978818 	 1.539555 
H 	 7.043369 	 1.416613 	 2.595784 
H 	 -3.035020 	 6.735877 	 1.617674 
H 	 -4.469699 	 6.695144 	 2.143019 
H 	 2.304359 	 -4.445906 	 3.792533 
H 	 1.773358 	 -4.082114 	 5.124456 
H 	 -2.947326 	 -6.897208 	 4.900547 
H 	 -3.671033 	 -6.811072 	 6.204211 
H 	 -2.906693 	 -3.929180 	 5.116759 
H 	 -4.296473 	 -4.217446 	 4.593181 
H 	 3.776903 	 5.731335 	 -7.002048 
H 	 2.604229 	 6.632580 	 7.327554 
H 	 4.105519 	 -6.855036 	 -3.002986 
H 	 3.929025 	 -6.208258 	 -1.575976 
H 	 -6.660511 	 1.351987 	 7.461187 
H 	 7.049190 	 0.579996 	 -6.658842 
H 	 -0.250046 	 -5.136696 	 6.650110 
H 	 -0.750693 	 -4.974362 	 5.116657 
H 	 -2.044245 	 4.283508 	 -4.049466 
H 	 -0.579719 	 3.672567 	 -4.085836 
H 	 7.048564 	 5.359070 	 0.247469 
H 	 5.687686 	 5.838532 	 0.782987 
H 	 -3.609581 	 4.699630 	 5.065095 
H 	 -3.717390 	 3.563476 	 6.044523 
H 	 -2.466766 	 -2.468451 	 1.639105 
H 	 -3.152253 	 -2.938570 	 2.885064 
H 	 -6.016311 	 7.332333 	 3.640350 
H 	 -4.882952 	 -6.636965 	 3.628402 
H 	 6.522306 	 4.991331 	 7.404417 
H 	 5.400027 	 3.901659 	 -7.217889 
H 	 2.071810 	 0.013142 	 4.341474 
H 	 1.762607 	 -1.520566 	 4.437544 
H 	 4.690521 	 3.446688 	 -3.602612 
H 	 4.973944 	 3.705310 	 -5.141452 
H 	 5.208568 	 1.146249 	 -5.148684 
H 	 5.363575 	 -0.382285 	 -5.427256 
H 	 5.914033 	 4.395876 	 -2.206121 
H 	 5.107153 	 3.359123 	 -1.368427 
H 	 0.642262 	 -5.523593 	 -5.705008 
H 	 -0.393156 	 -6.577488 	 -6.210829 
H 	 3.366975 	 2.125761 	 -6.516095 
H 	 4.299495 	 1.215054 	 -7.215140 
H 	 4.014163 	 -6.402088 	 3.849514 
H 	 4.877829 	 -5.896832 	 5.153624 
H 	 -2.546491 	 -5.006520 	 1.056383 
H 	 -3.834612 	 -4.186573 	 0.691741 
H 	 -7.152155 	 2.392030 	 -4.139496 
H 	 -7.022702 	 2.353862 	 -5.705606 
H 	 4.793875 	 -5.789157 	 7.259482 
H 	 5.460550 	 -4.427243 	 7.040485 
H 	 1.395406 	 -0.776517 	 6.607730 
H 	 1.508036 	 0.351621 	 -7.171502 
H 	 5.109980 	 1.150506 	 5.020739 
H 	 4.162393 	 2.064449 	 4.160626 
H 	 1.733700 	 4.575283 	 -6.946651 
H 	 1.160643 	 3.180877 	 -6.523282 
H 	 -3.310008 	 3.280643 	 0.597839 
H 	 -2.795799 	 4.561961 	 -0.196112 
H 	 -1.471081 	 1.650834 	 3.145862 
H 	 -1.007794 	 2.254338 	 4.554691 
H 	 -2.063900 	 -5.750347 	 3.034018 
H 	 -1.123199 	 -6.475753 	 1.846786 
H 	 -2.439728 	 -1.481365 	 6.042894 
H 	 -2.936225 	 -1.031651 	 4.698923 
H 	 -1.078587 	 7.015268 	 5.563458 
H 	 -0.514793 	 7.170424 	 4.180688 
H 	 -3.541286 	 2.699212 	 -6.183213 
H 	 -2.094930 	 2.434440 	 -5.661439 
H 	 1.619328 	 6.654939 	 -5.287011 
H 	 -2.293276 	 6.025806 	 -1.995400 
H 	 -5.401764 	 -1.315106 	 4.869994 
H 	 -6.006568 	 -2.718935 	 4.985353 
H 	 5.213950 	 -1.592517 	 6.353005 
H 	 4.052115 	 -0.920919 	 5.740377 
H 	 3.065036 	 5.928107 	 2.347838 
H 	 3.233883 	 5.809118 	 0.891037 
H 	 -0.397599 	 -2.826823 	 -3.471485 
H 	 -0.284895 	 -2.218171 	 -4.905071 
H 	 -1.999377 	 7.015414 	 -0.885824 
O 	 -7.082034 	 -2.761163 	 -5.020716 
O 	 4.819459 	 -6.435064 	 -0.038396 
O 	 -5.282847 	 -3.561195 	 1.509117 
O 	 5.690982 	 -2.781988 	 -7.114165 
O 	 -6.221083 	 -4.451825 	 4.898818 
O 	 6.778208 	 -5.123161 	 2.835508 
O 	 -3.883091 	 -6.970551 	 -6.509310 
O 	 -6.116052 	 3.385752 	 2.816680 
O 	 -3.953405 	 -5.500734 	 -1.866061 
O 	 -4.900001 	 1.143371 	 3.656435 
O 	 3.327544 	 -2.197486 	 -5.539488 
O 	 -3.449820 	 4.242456 	 3.387779 
O 	 2.291658 	 1.511144 	 3.477564 
O 	 6.890431 	 4.183994 	 4.798219 
O 	 -0.219049 	 -2.459928 	 -1.637263 
O 	 6.701711 	 -2.351791 	 2.998888 
O 	 2.734909 	 -5.606847 	 2.263348 
O 	 -5.496897 	 6.630826 	 -1.131372 
O 	 -2.777881 	 5.662568 	 -3.594905 
O 	 0.770137 	 4.837580 	 -2.453036 
O 	 -2.358519 	 -0.749203 	 -3.232751 
O 	 1.705532 	 2.133364 	 -2.274002 
O 	 7.212794 	 -5.732112 	 -5.281579 
O 	 -5.391592 	 -1.702655 	 -6.851351 
O 	 1.805636 	 -6.977465 	 6.199850 
O 	 0.539498 	 -2.072497 	 2.393754 
O 	 -2.037403 	 0.587710 	 1.731488 
O 	 0.423506 	 -0.396635 	 -4.173679 
O 	 -7.174127 	 0.877361 	 -0.517626 
O 	 6.833373 	 6.285567 	 -2.975614 
O 	 3.931732 	 -3.162444 	 1.283159 
O 	 7.176186 	 6.718995 	 4.091088 
O 	 5.658913 	 -4.075608 	 -2.842374 
O 	 -6.887266 	 3.919293 	 -0.077776 
O 	 -6.439008 	 -6.469378 	 6.933995 
O 	 4.272945 	 -5.967468 	 -5.742320 
O 	 -5.639032 	 -7.214789 	 -4.187337 
O 	 1.038263 	 -5.771733 	 -2.220288 
O 	 0.559889 	 5.985854 	 3.420239 
O 	 4.528392 	 3.001652 	 0.827606 
O 	 -0.161895 	 0.109740 	 -0.303130 
O 	 3.963755 	 5.227809 	 4.904974 
O 	 -4.819519 	 1.543265 	 6.413556 
O 	 6.395790 	 -2.751881 	 0.181962 
O 	 -0.023812 	 3.825966 	 1.383816 
O 	 1.978210 	 -4.525065 	 -4.655747 
O 	 -5.341317 	 -0.861845 	 0.592441 
O 	 -4.228028 	 1.917517 	 0.783219 
O 	 -1.504049 	 6.992731 	 -5.457285 
O 	 -4.548760 	 4.371238 	 -5.613397 
O 	 -3.680397 	 -3.939890 	 -7.348237 
O 	 2.448738 	 1.195896 	 0.137341 
O 	 4.363019 	 6.426675 	 -4.180061 
O 	 2.005458 	 2.092249 	 -5.398313 
O 	 0.556012 	 -6.750098 	 0.677409 
O 	 4.439243 	 -1.045034 	 2.907471 
O 	 -6.624465 	 -5.014115 	 -1.704663 
O 	 2.639183 	 -1.036682 	 -2.649782 
O 	 2.620283 	 -3.408453 	 -1.302611 
O 	 1.656922 	 5.693443 	 0.059117 
O 	 -0.722306 	 1.278679 	 6.151031 
O 	 1.715117 	 3.578895 	 5.114145 
O 	 5.749403 	 -0.715527 	 -1.654403 
O 	 -1.925838 	 1.942899 	 -1.960335 
O 	 -3.447015 	 -2.199206 	 -1.098157 
O 	 -1.040740 	 5.604502 	 6.528990 
O 	 -0.966237 	 -2.019084 	 6.723413 
O 	 -6.437595 	 5.504124 	 6.689787 
O 	 -6.227399 	 -1.584701 	 -2.602098 
O 	 -1.670222 	 -5.701161 	 -3.705599 
O 	 -2.767176 	 -0.536264 	 -6.110380 
O 	 6.491020 	 1.193433 	 1.862774 
O 	 -3.841494 	 6.228918 	 1.547269 
O 	 2.335421 	 -3.715648 	 4.447264 
O 	 -3.844450 	 -6.783193 	 5.239028 
O 	 -3.342776 	 -4.237578 	 4.289299 
O 	 2.796957 	 5.961570 	 -6.868089 
O 	 3.827330 	 -5.975051 	 -2.579439 
O 	 7.317630 	 1.351980 	 -7.146271 
O 	 -0.438543 	 -4.470446 	 5.910407 
O 	 -1.505893 	 3.440121 	 -4.267111 
O 	 6.448520 	 6.157463 	 0.285625 
O 	 -3.805871 	 4.557226 	 6.001970 
O 	 -2.559874 	 -2.227590 	 2.555179 
O 	 -5.443775 	 -7.059947 	 3.004126 
O 	 5.713663 	 4.795336 	 -6.958076 
O 	 2.277236 	 -0.803105 	 4.834384 
O 	 4.281581 	 3.726049 	 -4.465184 
O 	 5.474868 	 0.284981 	 -4.724347 
O 	 5.606771 	 3.475009 	 -2.217902 
O 	 0.123825 	 -5.782665 	 -6.456830 
O 	 4.303080 	 2.101999 	 -6.764125 
O 	 4.812240 	 -6.596925 	 4.383939 
O 	 -2.898086 	 -4.319789 	 0.407753 
O 	 -6.859727 	 2.981174 	 -4.887484 
O 	 5.128787 	 -5.197554 	 6.529237 
O 	 1.453471 	 -0.606066 	 -7.301229 
O 	 5.005919 	 2.047584 	 4.625160 
O 	 1.044200 	 3.880883 	 -7.211717 
O 	 -2.507099 	 3.645137 	 0.115768 
O 	 -1.163747 	 2.482838 	 3.628238 
O 	 -2.062238 	 -6.293439 	 2.215537 
O 	 -3.201490 	 -1.083849 	 5.651130 
O 	 -1.011522 	 -7.185250 	 4.829204 
O 	 -2.726868 	 2.119185 	 -6.403245 
O 	 1.086148 	 6.930881 	 -4.508754 
O 	 -6.248144 	 -1.765660 	 4.904091 
O 	 4.939918 	 -0.719136 	 6.026747 
O 	 3.791773 	 5.723699 	 1.686261 
O 	 -0.407702 	 -3.055177 	 -4.446225 
O 	 -1.895578 	 6.069541 	 -1.072942 
K 	 -6.948304 	 -6.190180 	 0.552550 
